srun: Step created for StepId=18994511.1
/*---------------------------------------------------------------------------*\
| =========                 |                                                 |
| \\      /  F ield         | OpenFOAM: The Open Source CFD Toolbox           |
|  \\    /   O peration     | Version:  2406                                  |
|   \\  /    A nd           | Website:  www.openfoam.com                      |
|    \\/     M anipulation  |                                                 |
\*---------------------------------------------------------------------------*/
Build  : _630d60de3b-20240620 OPENFOAM=2406 version=v2406
Arch   : "LSB;label=32;scalar=64"
Exec   : /pdc/software/24.11/other/openfoam/v2406/OpenFOAM-v2406/platforms/linux64CrayDPInt32Opt/bin/rhoReactingBuoyantFoam -case /cfs/klemming/home/c/chhua/naiss2024-5-347/OpenFOAM/chhua-v2406/run/H2Vent/1m3_27mm_wall_H2_test_15 -parallel
Date   : Mar 27 2026
Time   : 13:43:17
Host   : nid001085
PID    : 1242405
I/O    : uncollated
Case   : /cfs/klemming/home/c/chhua/naiss2024-5-347/OpenFOAM/chhua-v2406/run/H2Vent/1m3_27mm_wall_H2_test_15
nProcs : 128
Hosts  :
(
    (nid001085 128)
)
Pstream initialized with:
    floatTransfer      : false
    maxCommsSize       : 0
    nProcsSimpleSum    : 0
    nonBlockingExchange: 0 (tuning: 0)
    exchange algorithm : 0
    commsType          : nonBlocking
    polling iterations : 0
trapFpe: Floating point exception trapping enabled (FOAM_SIGFPE).
fileModificationChecking : Monitoring run-time modified files using timeStampMaster (fileModificationSkew 5, maxFileModificationPolls 20)
allowSystemOperations : Allowing user-supplied system call operations

// * * * * * * * * * * * * * * * * * * * * * * * * * * * * * * * * * * * * * //
Create time

Create mesh for time = 0


PIMPLE: Operating solver in PISO mode

Reading thermophysical properties

Selecting thermodynamics package 
{
    type            heRhoThermo;
    mixture         multiComponentMixture;
    transport       sutherland;
    thermo          janaf;
    energy          sensibleEnthalpy;
    equationOfState perfectGas;
    specie          specie;
}

Reading field U

Reading/calculating face flux field phi

Creating turbulence model.

Selecting turbulence model type RAS
Selecting RAS turbulence model kEpsilon
RAS
{
    RASModel        kEpsilon;
    turbulence      on;
    printCoeffs     on;
    Cmu             0.09;
    C1              1.44;
    C2              1.92;
    C3              0;
    sigmak          1;
    sigmaEps        1.3;
}

Creating reaction model

Selecting combustion model none

Reading g

Reading hRef
Calculating field g.h

Reading field p_rgh

Creating field dpdt

Creating field kinetic energy K

No MRF models present

No finite volume options present
Courant Number mean: 2.34442e-07 max: 2.61362e-05

Starting time loop

Courant Number mean: 2.34442e-07 max: 2.61362e-05
deltaT = 0.00012
Time = 0.00012

diagonal:  Solving for rho, Initial residual = 0, Final residual = 0, No Iterations 0
PIMPLE: iteration 1
DILUPBiCGStab:  Solving for H2, Initial residual = 1, Final residual = 3.65657e-12, No Iterations 1
DILUPBiCGStab:  Solving for h, Initial residual = 0.99804, Final residual = 5.4816e-12, No Iterations 1
min/max(T) = 286.136, 286.15
DICPCG:  Solving for p_rgh, Initial residual = 0.000634175, Final residual = 5.73511e-06, No Iterations 21
DICPCG:  Solving for p_rgh, Initial residual = 5.92192e-06, Final residual = 8.43054e-07, No Iterations 12
diagonal:  Solving for rho, Initial residual = 0, Final residual = 0, No Iterations 0
time step continuity errors : sum local = 2.8518e-10, global = 1.41923e-11, cumulative = 1.41923e-11
DICPCG:  Solving for p_rgh, Initial residual = 8.74536e-07, Final residual = 8.74536e-07, No Iterations 0
DICPCG:  Solving for p_rgh, Initial residual = 8.74537e-07, Final residual = 8.74537e-07, No Iterations 0
diagonal:  Solving for rho, Initial residual = 0, Final residual = 0, No Iterations 0
time step continuity errors : sum local = 3.20265e-10, global = 5.56579e-11, cumulative = 6.98502e-11
DILUPBiCGStab:  Solving for epsilon, Initial residual = 0.0002201, Final residual = 9.76718e-10, No Iterations 1
DILUPBiCGStab:  Solving for k, Initial residual = 1, Final residual = 1.08481e-10, No Iterations 1
ExecutionTime = 0.92 s  ClockTime = 1 s

Courant Number mean: 2.23875e-06 max: 0.0119674
deltaT = 0.000144001
Time = 0.000264002

diagonal:  Solving for rho, Initial residual = 0, Final residual = 0, No Iterations 0
PIMPLE: iteration 1
DILUPBiCGStab:  Solving for H2, Initial residual = 3.6378e-05, Final residual = 9.41617e-11, No Iterations 1
DILUPBiCGStab:  Solving for h, Initial residual = 0.635607, Final residual = 3.93827e-07, No Iterations 1
min/max(T) = 286.15, 286.219
DICPCG:  Solving for p_rgh, Initial residual = 0.00107728, Final residual = 1.04229e-05, No Iterations 14
DICPCG:  Solving for p_rgh, Initial residual = 1.06552e-05, Final residual = 9.26587e-07, No Iterations 24
diagonal:  Solving for rho, Initial residual = 0, Final residual = 0, No Iterations 0
time step continuity errors : sum local = 3.24186e-10, global = -7.00085e-12, cumulative = 6.28493e-11
DICPCG:  Solving for p_rgh, Initial residual = 9.69844e-07, Final residual = 9.69844e-07, No Iterations 0
DICPCG:  Solving for p_rgh, Initial residual = 9.69844e-07, Final residual = 9.69844e-07, No Iterations 0
diagonal:  Solving for rho, Initial residual = 0, Final residual = 0, No Iterations 0
time step continuity errors : sum local = 3.44837e-10, global = 2.59875e-11, cumulative = 8.88368e-11
DILUPBiCGStab:  Solving for epsilon, Initial residual = 2.99715e-05, Final residual = 1.93867e-11, No Iterations 1
DILUPBiCGStab:  Solving for k, Initial residual = 0.163714, Final residual = 2.32599e-07, No Iterations 1
ExecutionTime = 1.11 s  ClockTime = 2 s

Courant Number mean: 5.50016e-06 max: 0.0125052
deltaT = 0.000172803
Time = 0.000436804

diagonal:  Solving for rho, Initial residual = 0, Final residual = 0, No Iterations 0
PIMPLE: iteration 1
DILUPBiCGStab:  Solving for H2, Initial residual = 4.09107e-05, Final residual = 4.82396e-11, No Iterations 1
DILUPBiCGStab:  Solving for h, Initial residual = 0.247902, Final residual = 2.36905e-07, No Iterations 1
min/max(T) = 286.124, 286.187
DICPCG:  Solving for p_rgh, Initial residual = 0.00160768, Final residual = 1.38039e-05, No Iterations 22
DICPCG:  Solving for p_rgh, Initial residual = 1.4171e-05, Final residual = 9.1264e-07, No Iterations 26
diagonal:  Solving for rho, Initial residual = 0, Final residual = 0, No Iterations 0
time step continuity errors : sum local = 3.19369e-10, global = 2.64264e-11, cumulative = 1.15263e-10
DICPCG:  Solving for p_rgh, Initial residual = 9.94306e-07, Final residual = 9.94306e-07, No Iterations 0
DICPCG:  Solving for p_rgh, Initial residual = 9.94306e-07, Final residual = 9.94306e-07, No Iterations 0
diagonal:  Solving for rho, Initial residual = 0, Final residual = 0, No Iterations 0
time step continuity errors : sum local = 3.85965e-10, global = 5.06032e-11, cumulative = 1.65866e-10
DILUPBiCGStab:  Solving for epsilon, Initial residual = 3.31222e-05, Final residual = 4.01479e-11, No Iterations 1
DILUPBiCGStab:  Solving for k, Initial residual = 0.101855, Final residual = 1.95088e-07, No Iterations 1
ExecutionTime = 1.32 s  ClockTime = 2 s

Courant Number mean: 1.05607e-05 max: 0.0241081
deltaT = 0.000207365
Time = 0.000644169

diagonal:  Solving for rho, Initial residual = 0, Final residual = 0, No Iterations 0
PIMPLE: iteration 1
DILUPBiCGStab:  Solving for H2, Initial residual = 4.08357e-05, Final residual = 6.47001e-11, No Iterations 1
DILUPBiCGStab:  Solving for h, Initial residual = 0.169912, Final residual = 2.3231e-07, No Iterations 1
min/max(T) = 286.086, 286.166
DICPCG:  Solving for p_rgh, Initial residual = 0.00234968, Final residual = 2.27336e-05, No Iterations 26
DICPCG:  Solving for p_rgh, Initial residual = 2.34137e-05, Final residual = 9.80179e-07, No Iterations 35
diagonal:  Solving for rho, Initial residual = 0, Final residual = 0, No Iterations 0
time step continuity errors : sum local = 3.27721e-10, global = -1.43369e-11, cumulative = 1.5153e-10
DICPCG:  Solving for p_rgh, Initial residual = 1.13743e-06, Final residual = 5.62575e-07, No Iterations 1
DICPCG:  Solving for p_rgh, Initial residual = 5.62457e-07, Final residual = 5.62457e-07, No Iterations 0
diagonal:  Solving for rho, Initial residual = 0, Final residual = 0, No Iterations 0
time step continuity errors : sum local = 3.26537e-10, global = 8.55818e-14, cumulative = 1.51615e-10
DILUPBiCGStab:  Solving for epsilon, Initial residual = 3.64282e-05, Final residual = 6.20799e-11, No Iterations 1
DILUPBiCGStab:  Solving for k, Initial residual = 0.064269, Final residual = 1.5172e-07, No Iterations 1
ExecutionTime = 1.53 s  ClockTime = 2 s

Courant Number mean: 1.81804e-05 max: 0.0260892
deltaT = 0.000248839
Time = 0.000893009

diagonal:  Solving for rho, Initial residual = 0, Final residual = 0, No Iterations 0
PIMPLE: iteration 1
DILUPBiCGStab:  Solving for H2, Initial residual = 4.2416e-05, Final residual = 1.04935e-10, No Iterations 1
DILUPBiCGStab:  Solving for h, Initial residual = 0.139033, Final residual = 2.5687e-07, No Iterations 1
min/max(T) = 286.043, 286.155
DICPCG:  Solving for p_rgh, Initial residual = 0.00370643, Final residual = 3.55045e-05, No Iterations 17
DICPCG:  Solving for p_rgh, Initial residual = 3.63563e-05, Final residual = 9.61141e-07, No Iterations 61
diagonal:  Solving for rho, Initial residual = 0, Final residual = 0, No Iterations 0
time step continuity errors : sum local = 3.39545e-10, global = -6.93309e-12, cumulative = 1.44682e-10
DICPCG:  Solving for p_rgh, Initial residual = 1.27766e-06, Final residual = 5.5869e-07, No Iterations 1
DICPCG:  Solving for p_rgh, Initial residual = 5.58245e-07, Final residual = 5.58245e-07, No Iterations 0
diagonal:  Solving for rho, Initial residual = 0, Final residual = 0, No Iterations 0
time step continuity errors : sum local = 3.80591e-10, global = -3.35744e-11, cumulative = 1.11108e-10
DILUPBiCGStab:  Solving for epsilon, Initial residual = 4.0349e-05, Final residual = 9.45987e-11, No Iterations 1
DILUPBiCGStab:  Solving for k, Initial residual = 0.0502705, Final residual = 1.39462e-07, No Iterations 1
ExecutionTime = 1.74 s  ClockTime = 2 s

Courant Number mean: 2.9379e-05 max: 0.0187328
deltaT = 0.000298606
Time = 0.00119161

diagonal:  Solving for rho, Initial residual = 0, Final residual = 0, No Iterations 0
PIMPLE: iteration 1
DILUPBiCGStab:  Solving for H2, Initial residual = 4.41903e-05, Final residual = 1.72288e-10, No Iterations 1
DILUPBiCGStab:  Solving for h, Initial residual = 0.125806, Final residual = 3.13785e-07, No Iterations 1
min/max(T) = 286.005, 286.155
DICPCG:  Solving for p_rgh, Initial residual = 0.00542262, Final residual = 5.39513e-05, No Iterations 21
DICPCG:  Solving for p_rgh, Initial residual = 5.54173e-05, Final residual = 8.32106e-07, No Iterations 72
diagonal:  Solving for rho, Initial residual = 0, Final residual = 0, No Iterations 0
time step continuity errors : sum local = 3.0639e-10, global = 2.67683e-11, cumulative = 1.37876e-10
DICPCG:  Solving for p_rgh, Initial residual = 1.33575e-06, Final residual = 5.77549e-07, No Iterations 1
DICPCG:  Solving for p_rgh, Initial residual = 5.76808e-07, Final residual = 5.76808e-07, No Iterations 0
diagonal:  Solving for rho, Initial residual = 0, Final residual = 0, No Iterations 0
time step continuity errors : sum local = 4.81882e-10, global = -6.92599e-11, cumulative = 6.8616e-11
DILUPBiCGStab:  Solving for epsilon, Initial residual = 4.5204e-05, Final residual = 1.45203e-10, No Iterations 1
DILUPBiCGStab:  Solving for k, Initial residual = 0.04697, Final residual = 1.64784e-07, No Iterations 1
ExecutionTime = 1.97 s  ClockTime = 2 s

Courant Number mean: 4.54933e-05 max: 0.0163592
deltaT = 0.000358329
Time = 0.00154994

diagonal:  Solving for rho, Initial residual = 0, Final residual = 0, No Iterations 0
PIMPLE: iteration 1
DILUPBiCGStab:  Solving for H2, Initial residual = 4.59488e-05, Final residual = 2.8756e-10, No Iterations 1
DILUPBiCGStab:  Solving for h, Initial residual = 0.120308, Final residual = 4.2482e-07, No Iterations 1
min/max(T) = 285.975, 286.156
DICPCG:  Solving for p_rgh, Initial residual = 0.00769064, Final residual = 7.59449e-05, No Iterations 35
DICPCG:  Solving for p_rgh, Initial residual = 7.93172e-05, Final residual = 8.65234e-07, No Iterations 78
diagonal:  Solving for rho, Initial residual = 0, Final residual = 0, No Iterations 0
time step continuity errors : sum local = 3.30617e-10, global = 3.15393e-11, cumulative = 1.00155e-10
DICPCG:  Solving for p_rgh, Initial residual = 1.70694e-06, Final residual = 6.90903e-07, No Iterations 1
DICPCG:  Solving for p_rgh, Initial residual = 6.94281e-07, Final residual = 6.94281e-07, No Iterations 0
diagonal:  Solving for rho, Initial residual = 0, Final residual = 0, No Iterations 0
time step continuity errors : sum local = 6.29866e-10, global = -1.62443e-10, cumulative = -6.22874e-11
DILUPBiCGStab:  Solving for epsilon, Initial residual = 5.1285e-05, Final residual = 2.3104e-10, No Iterations 1
DILUPBiCGStab:  Solving for k, Initial residual = 0.0455717, Final residual = 2.12259e-07, No Iterations 1
ExecutionTime = 2.2 s  ClockTime = 3 s

Courant Number mean: 6.82193e-05 max: 0.0274919
deltaT = 0.000429985
Time = 0.00197993

diagonal:  Solving for rho, Initial residual = 0, Final residual = 0, No Iterations 0
PIMPLE: iteration 1
DILUPBiCGStab:  Solving for H2, Initial residual = 4.76175e-05, Final residual = 4.94511e-10, No Iterations 1
DILUPBiCGStab:  Solving for h, Initial residual = 0.116026, Final residual = 5.9764e-07, No Iterations 1
min/max(T) = 285.941, 286.159
DICPCG:  Solving for p_rgh, Initial residual = 0.011133, Final residual = 0.000107099, No Iterations 42
DICPCG:  Solving for p_rgh, Initial residual = 0.000113024, Final residual = 1.04261e-06, No Iterations 77
diagonal:  Solving for rho, Initial residual = 0, Final residual = 0, No Iterations 0
time step continuity errors : sum local = 3.98851e-10, global = 4.81381e-11, cumulative = -1.41494e-11
DICPCG:  Solving for p_rgh, Initial residual = 2.30658e-06, Final residual = 9.38024e-07, No Iterations 1
DICPCG:  Solving for p_rgh, Initial residual = 9.3738e-07, Final residual = 9.3738e-07, No Iterations 0
diagonal:  Solving for rho, Initial residual = 0, Final residual = 0, No Iterations 0
time step continuity errors : sum local = 8.72997e-10, global = -2.95193e-10, cumulative = -3.09342e-10
DILUPBiCGStab:  Solving for epsilon, Initial residual = 5.86586e-05, Final residual = 3.69408e-10, No Iterations 1
DILUPBiCGStab:  Solving for k, Initial residual = 0.0412901, Final residual = 2.61129e-07, No Iterations 1
ExecutionTime = 2.43 s  ClockTime = 3 s

Courant Number mean: 9.96044e-05 max: 0.0465988
deltaT = 0.000515974
Time = 0.0024959

diagonal:  Solving for rho, Initial residual = 0, Final residual = 0, No Iterations 0
PIMPLE: iteration 1
DILUPBiCGStab:  Solving for H2, Initial residual = 4.9105e-05, Final residual = 8.63e-10, No Iterations 1
DILUPBiCGStab:  Solving for h, Initial residual = 0.114917, Final residual = 8.56302e-07, No Iterations 1
min/max(T) = 285.891, 286.161
DICPCG:  Solving for p_rgh, Initial residual = 0.0161731, Final residual = 0.00015789, No Iterations 48
DICPCG:  Solving for p_rgh, Initial residual = 0.000168099, Final residual = 1.67101e-06, No Iterations 82
diagonal:  Solving for rho, Initial residual = 0, Final residual = 0, No Iterations 0
time step continuity errors : sum local = 6.03729e-10, global = 9.11317e-11, cumulative = -2.1821e-10
DICPCG:  Solving for p_rgh, Initial residual = 3.5637e-06, Final residual = 9.79631e-07, No Iterations 3
DICPCG:  Solving for p_rgh, Initial residual = 1.00125e-06, Final residual = 7.25396e-07, No Iterations 1
diagonal:  Solving for rho, Initial residual = 0, Final residual = 0, No Iterations 0
time step continuity errors : sum local = 1.17695e-09, global = -4.9947e-10, cumulative = -7.17681e-10
DILUPBiCGStab:  Solving for epsilon, Initial residual = 6.71402e-05, Final residual = 5.81612e-10, No Iterations 1
DILUPBiCGStab:  Solving for k, Initial residual = 0.0345853, Final residual = 2.87264e-07, No Iterations 1
ExecutionTime = 2.68 s  ClockTime = 3 s

Courant Number mean: 0.00014203 max: 0.0655059
deltaT = 0.000619156
Time = 0.00311506

diagonal:  Solving for rho, Initial residual = 0, Final residual = 0, No Iterations 0
PIMPLE: iteration 1
DILUPBiCGStab:  Solving for H2, Initial residual = 5.03195e-05, Final residual = 1.50783e-09, No Iterations 1
DILUPBiCGStab:  Solving for h, Initial residual = 0.118089, Final residual = 2.42264e-10, No Iterations 1
min/max(T) = 285.832, 286.159
DICPCG:  Solving for p_rgh, Initial residual = 0.0235915, Final residual = 0.000232218, No Iterations 41
DICPCG:  Solving for p_rgh, Initial residual = 0.000249007, Final residual = 2.48117e-06, No Iterations 95
diagonal:  Solving for rho, Initial residual = 0, Final residual = 0, No Iterations 0
time step continuity errors : sum local = 8.69899e-10, global = 1.30318e-10, cumulative = -5.87363e-10
DICPCG:  Solving for p_rgh, Initial residual = 5.55865e-06, Final residual = 9.71483e-07, No Iterations 19
DICPCG:  Solving for p_rgh, Initial residual = 1.01616e-06, Final residual = 6.47123e-07, No Iterations 1
diagonal:  Solving for rho, Initial residual = 0, Final residual = 0, No Iterations 0
time step continuity errors : sum local = 1.59894e-09, global = -8.12319e-10, cumulative = -1.39968e-09
DILUPBiCGStab:  Solving for epsilon, Initial residual = 7.62174e-05, Final residual = 9.07364e-10, No Iterations 1
DILUPBiCGStab:  Solving for k, Initial residual = 0.0282536, Final residual = 3.11775e-07, No Iterations 1
ExecutionTime = 2.94 s  ClockTime = 3 s

Courant Number mean: 0.000198339 max: 0.0878448
deltaT = 0.000742987
Time = 0.00385804

diagonal:  Solving for rho, Initial residual = 0, Final residual = 0, No Iterations 0
PIMPLE: iteration 1
DILUPBiCGStab:  Solving for H2, Initial residual = 5.12029e-05, Final residual = 2.66206e-09, No Iterations 1
DILUPBiCGStab:  Solving for h, Initial residual = 0.12515, Final residual = 3.01661e-10, No Iterations 1
min/max(T) = 285.769, 286.16
DICPCG:  Solving for p_rgh, Initial residual = 0.0343332, Final residual = 0.000331017, No Iterations 47
DICPCG:  Solving for p_rgh, Initial residual = 0.000366504, Final residual = 3.64411e-06, No Iterations 102
diagonal:  Solving for rho, Initial residual = 0, Final residual = 0, No Iterations 0
time step continuity errors : sum local = 1.21235e-09, global = 2.15796e-10, cumulative = -1.18389e-09
DICPCG:  Solving for p_rgh, Initial residual = 8.08052e-06, Final residual = 9.24049e-07, No Iterations 31
DICPCG:  Solving for p_rgh, Initial residual = 1.04494e-06, Final residual = 6.26905e-07, No Iterations 1
diagonal:  Solving for rho, Initial residual = 0, Final residual = 0, No Iterations 0
time step continuity errors : sum local = 2.29191e-09, global = -1.21651e-09, cumulative = -2.40039e-09
DILUPBiCGStab:  Solving for epsilon, Initial residual = 8.46325e-05, Final residual = 1.45713e-09, No Iterations 1
DILUPBiCGStab:  Solving for k, Initial residual = 0.022893, Final residual = 3.50263e-07, No Iterations 1
ExecutionTime = 3.2 s  ClockTime = 4 s

Courant Number mean: 0.000272452 max: 0.120373
deltaT = 0.000891557
Time = 0.0047496

diagonal:  Solving for rho, Initial residual = 0, Final residual = 0, No Iterations 0
PIMPLE: iteration 1
DILUPBiCGStab:  Solving for H2, Initial residual = 5.16701e-05, Final residual = 4.74534e-09, No Iterations 1
DILUPBiCGStab:  Solving for h, Initial residual = 0.135192, Final residual = 4.09782e-10, No Iterations 1
min/max(T) = 285.707, 286.161
DICPCG:  Solving for p_rgh, Initial residual = 0.0489797, Final residual = 0.000480475, No Iterations 55
DICPCG:  Solving for p_rgh, Initial residual = 0.000542834, Final residual = 5.18436e-06, No Iterations 117
diagonal:  Solving for rho, Initial residual = 0, Final residual = 0, No Iterations 0
time step continuity errors : sum local = 1.71737e-09, global = 1.70831e-10, cumulative = -2.22956e-09
DICPCG:  Solving for p_rgh, Initial residual = 1.18415e-05, Final residual = 9.29392e-07, No Iterations 38
DICPCG:  Solving for p_rgh, Initial residual = 1.15372e-06, Final residual = 6.83768e-07, No Iterations 1
diagonal:  Solving for rho, Initial residual = 0, Final residual = 0, No Iterations 0
time step continuity errors : sum local = 3.26019e-09, global = -1.68804e-09, cumulative = -3.91761e-09
DILUPBiCGStab:  Solving for epsilon, Initial residual = 8.98844e-05, Final residual = 2.29915e-09, No Iterations 1
DILUPBiCGStab:  Solving for k, Initial residual = 0.0181456, Final residual = 4.55675e-07, No Iterations 1
ExecutionTime = 3.48 s  ClockTime = 4 s

Courant Number mean: 0.000370854 max: 0.16547
deltaT = 0.00106981
Time = 0.00581941

diagonal:  Solving for rho, Initial residual = 0, Final residual = 0, No Iterations 0
PIMPLE: iteration 1
DILUPBiCGStab:  Solving for H2, Initial residual = 5.15655e-05, Final residual = 8.57995e-09, No Iterations 1
DILUPBiCGStab:  Solving for h, Initial residual = 0.145349, Final residual = 6.20714e-10, No Iterations 1
min/max(T) = 285.649, 286.163
DICPCG:  Solving for p_rgh, Initial residual = 0.0673417, Final residual = 0.000639843, No Iterations 82
DICPCG:  Solving for p_rgh, Initial residual = 0.000753295, Final residual = 7.44434e-06, No Iterations 107
diagonal:  Solving for rho, Initial residual = 0, Final residual = 0, No Iterations 0
time step continuity errors : sum local = 2.39713e-09, global = 6.03422e-10, cumulative = -3.31419e-09
DICPCG:  Solving for p_rgh, Initial residual = 1.81992e-05, Final residual = 9.93238e-07, No Iterations 59
DICPCG:  Solving for p_rgh, Initial residual = 1.30055e-06, Final residual = 7.11671e-07, No Iterations 1
diagonal:  Solving for rho, Initial residual = 0, Final residual = 0, No Iterations 0
time step continuity errors : sum local = 4.52151e-09, global = -2.18795e-09, cumulative = -5.50213e-09
DILUPBiCGStab:  Solving for epsilon, Initial residual = 8.87015e-05, Final residual = 5.63082e-09, No Iterations 1
DILUPBiCGStab:  Solving for k, Initial residual = 0.0139531, Final residual = 7.3002e-07, No Iterations 1
ExecutionTime = 3.77 s  ClockTime = 4 s

Courant Number mean: 0.000500181 max: 0.226436
deltaT = 0.00128377
Time = 0.00710319

diagonal:  Solving for rho, Initial residual = 0, Final residual = 0, No Iterations 0
PIMPLE: iteration 1
DILUPBiCGStab:  Solving for H2, Initial residual = 5.06655e-05, Final residual = 1.57301e-08, No Iterations 1
DILUPBiCGStab:  Solving for h, Initial residual = 0.149664, Final residual = 1.05564e-09, No Iterations 1
min/max(T) = 285.607, 286.166
DICPCG:  Solving for p_rgh, Initial residual = 0.0880359, Final residual = 0.000877864, No Iterations 118
DICPCG:  Solving for p_rgh, Initial residual = 0.00110102, Final residual = 1.09294e-05, No Iterations 139
diagonal:  Solving for rho, Initial residual = 0, Final residual = 0, No Iterations 0
time step continuity errors : sum local = 3.21826e-09, global = 6.14869e-10, cumulative = -4.88727e-09
DICPCG:  Solving for p_rgh, Initial residual = 2.71025e-05, Final residual = 9.69943e-07, No Iterations 98
DICPCG:  Solving for p_rgh, Initial residual = 1.49808e-06, Final residual = 7.3394e-07, No Iterations 1
diagonal:  Solving for rho, Initial residual = 0, Final residual = 0, No Iterations 0
time step continuity errors : sum local = 5.76225e-09, global = -2.705e-09, cumulative = -7.59226e-09
DILUPBiCGStab:  Solving for epsilon, Initial residual = 7.90627e-05, Final residual = 4.24117e-08, No Iterations 1
DILUPBiCGStab:  Solving for k, Initial residual = 0.0104449, Final residual = 4.61499e-09, No Iterations 1
ExecutionTime = 4.13 s  ClockTime = 5 s

Courant Number mean: 0.000669053 max: 0.309076
deltaT = 0.00154045
Time = 0.00864364

diagonal:  Solving for rho, Initial residual = 0, Final residual = 0, No Iterations 0
PIMPLE: iteration 1
DILUPBiCGStab:  Solving for H2, Initial residual = 4.86544e-05, Final residual = 2.93267e-08, No Iterations 1
DILUPBiCGStab:  Solving for h, Initial residual = 0.141895, Final residual = 1.82427e-09, No Iterations 1
min/max(T) = 285.602, 286.169
DICPCG:  Solving for p_rgh, Initial residual = 0.105435, Final residual = 0.0010176, No Iterations 137
DICPCG:  Solving for p_rgh, Initial residual = 0.00144326, Final residual = 1.26493e-05, No Iterations 138
diagonal:  Solving for rho, Initial residual = 0, Final residual = 0, No Iterations 0
time step continuity errors : sum local = 3.06891e-09, global = 6.14823e-10, cumulative = -6.97744e-09
DICPCG:  Solving for p_rgh, Initial residual = 3.82553e-05, Final residual = 9.92212e-07, No Iterations 132
DICPCG:  Solving for p_rgh, Initial residual = 2.07419e-06, Final residual = 9.54038e-07, No Iterations 1
diagonal:  Solving for rho, Initial residual = 0, Final residual = 0, No Iterations 0
time step continuity errors : sum local = 6.4467e-09, global = -2.9661e-09, cumulative = -9.94354e-09
DILUPBiCGStab:  Solving for epsilon, Initial residual = 6.39736e-05, Final residual = 1.14657e-07, No Iterations 1
DILUPBiCGStab:  Solving for k, Initial residual = 0.00762165, Final residual = 2.62371e-08, No Iterations 1
ExecutionTime = 4.5 s  ClockTime = 5 s

Courant Number mean: 0.000886141 max: 0.421815
deltaT = 0.00184854
Time = 0.0104922

diagonal:  Solving for rho, Initial residual = 0, Final residual = 0, No Iterations 0
PIMPLE: iteration 1
DILUPBiCGStab:  Solving for H2, Initial residual = 4.51774e-05, Final residual = 5.5306e-08, No Iterations 1
DILUPBiCGStab:  Solving for h, Initial residual = 0.119272, Final residual = 2.83032e-09, No Iterations 1
min/max(T) = 285.657, 286.172
DICPCG:  Solving for p_rgh, Initial residual = 0.102067, Final residual = 0.000928137, No Iterations 157
DICPCG:  Solving for p_rgh, Initial residual = 0.00105649, Final residual = 1.04792e-05, No Iterations 113
diagonal:  Solving for rho, Initial residual = 0, Final residual = 0, No Iterations 0
time step continuity errors : sum local = 3.99574e-09, global = 8.78591e-10, cumulative = -9.06495e-09
DICPCG:  Solving for p_rgh, Initial residual = 4.71332e-05, Final residual = 9.45889e-07, No Iterations 145
DICPCG:  Solving for p_rgh, Initial residual = 2.51063e-06, Final residual = 8.77197e-07, No Iterations 2
diagonal:  Solving for rho, Initial residual = 0, Final residual = 0, No Iterations 0
time step continuity errors : sum local = 5.84041e-09, global = -2.55251e-09, cumulative = -1.16175e-08
DILUPBiCGStab:  Solving for epsilon, Initial residual = 4.7014e-05, Final residual = 2.33775e-07, No Iterations 1
DILUPBiCGStab:  Solving for k, Initial residual = 0.00541666, Final residual = 1.70361e-07, No Iterations 1
ExecutionTime = 4.88 s  ClockTime = 5 s

Courant Number mean: 0.0011519 max: 0.580123
deltaT = 0.00221841
Time = 0.0127106

diagonal:  Solving for rho, Initial residual = 0, Final residual = 0, No Iterations 0
PIMPLE: iteration 1
DILUPBiCGStab:  Solving for H2, Initial residual = 3.99998e-05, Final residual = 1.07677e-07, No Iterations 1
DILUPBiCGStab:  Solving for h, Initial residual = 0.0848311, Final residual = 3.75778e-09, No Iterations 1
min/max(T) = 285.778, 286.175
DICPCG:  Solving for p_rgh, Initial residual = 0.0487166, Final residual = 0.000469956, No Iterations 175
DICPCG:  Solving for p_rgh, Initial residual = 0.00057646, Final residual = 5.75512e-06, No Iterations 89
diagonal:  Solving for rho, Initial residual = 0, Final residual = 0, No Iterations 0
time step continuity errors : sum local = 3.88011e-09, global = 7.65707e-10, cumulative = -1.08518e-08
DICPCG:  Solving for p_rgh, Initial residual = 5.05013e-05, Final residual = 9.70572e-07, No Iterations 112
DICPCG:  Solving for p_rgh, Initial residual = 2.53144e-06, Final residual = 8.5981e-07, No Iterations 2
diagonal:  Solving for rho, Initial residual = 0, Final residual = 0, No Iterations 0
time step continuity errors : sum local = 3.67363e-09, global = -1.03398e-09, cumulative = -1.18857e-08
DILUPBiCGStab:  Solving for epsilon, Initial residual = 3.26233e-05, Final residual = 3.49832e-07, No Iterations 1
DILUPBiCGStab:  Solving for k, Initial residual = 0.00371639, Final residual = 7.20261e-07, No Iterations 1
ExecutionTime = 5.25 s  ClockTime = 6 s

Courant Number mean: 0.00145675 max: 0.815567
deltaT = 0.00266186
Time = 0.0153724

diagonal:  Solving for rho, Initial residual = 0, Final residual = 0, No Iterations 0
PIMPLE: iteration 1
DILUPBiCGStab:  Solving for H2, Initial residual = 3.33913e-05, Final residual = 2.07192e-07, No Iterations 1
DILUPBiCGStab:  Solving for h, Initial residual = 0.044714, Final residual = 4.30921e-09, No Iterations 1
min/max(T) = 285.722, 286.26
DICPCG:  Solving for p_rgh, Initial residual = 0.0189414, Final residual = 0.000181431, No Iterations 183
DICPCG:  Solving for p_rgh, Initial residual = 0.000327402, Final residual = 3.1792e-06, No Iterations 87
diagonal:  Solving for rho, Initial residual = 0, Final residual = 0, No Iterations 0
time step continuity errors : sum local = 3.06204e-09, global = 3.62045e-10, cumulative = -1.15237e-08
DICPCG:  Solving for p_rgh, Initial residual = 5.49221e-05, Final residual = 9.76696e-07, No Iterations 152
DICPCG:  Solving for p_rgh, Initial residual = 2.81363e-06, Final residual = 9.10997e-07, No Iterations 2
diagonal:  Solving for rho, Initial residual = 0, Final residual = 0, No Iterations 0
time step continuity errors : sum local = 2.68314e-09, global = 1.63621e-09, cumulative = -9.88748e-09
DILUPBiCGStab:  Solving for epsilon, Initial residual = 2.33324e-05, Final residual = 5.03178e-07, No Iterations 1
DILUPBiCGStab:  Solving for k, Initial residual = 0.00245966, Final residual = 9.49577e-09, No Iterations 2
ExecutionTime = 5.63 s  ClockTime = 6 s

Courant Number mean: 0.00181668 max: 1.1947
deltaT = 0.00310757
Time = 0.01848

diagonal:  Solving for rho, Initial residual = 0, Final residual = 0, No Iterations 0
PIMPLE: iteration 1
DILUPBiCGStab:  Solving for H2, Initial residual = 2.58979e-05, Final residual = 2.91857e-07, No Iterations 1
DILUPBiCGStab:  Solving for h, Initial residual = 0.0201357, Final residual = 7.02848e-09, No Iterations 1
min/max(T) = 285.626, 286.716
DICPCG:  Solving for p_rgh, Initial residual = 0.0279723, Final residual = 0.000275381, No Iterations 178
DICPCG:  Solving for p_rgh, Initial residual = 0.00039533, Final residual = 3.7376e-06, No Iterations 170
diagonal:  Solving for rho, Initial residual = 0, Final residual = 0, No Iterations 0
time step continuity errors : sum local = 3.96177e-09, global = -3.82268e-10, cumulative = -1.02698e-08
DICPCG:  Solving for p_rgh, Initial residual = 6.19706e-05, Final residual = 9.78142e-07, No Iterations 160
DICPCG:  Solving for p_rgh, Initial residual = 2.96377e-06, Final residual = 9.40763e-07, No Iterations 2
diagonal:  Solving for rho, Initial residual = 0, Final residual = 0, No Iterations 0
time step continuity errors : sum local = 6.17879e-09, global = 4.46201e-09, cumulative = -5.80774e-09
DILUPBiCGStab:  Solving for epsilon, Initial residual = 1.91201e-05, Final residual = 7.38231e-07, No Iterations 1
DILUPBiCGStab:  Solving for k, Initial residual = 0.00157189, Final residual = 3.40733e-08, No Iterations 2
ExecutionTime = 6.05 s  ClockTime = 7 s

Courant Number mean: 0.00256507 max: 1.75189
deltaT = 0.0034622
Time = 0.0219422

diagonal:  Solving for rho, Initial residual = 0, Final residual = 0, No Iterations 0
PIMPLE: iteration 1
DILUPBiCGStab:  Solving for H2, Initial residual = 1.939e-05, Final residual = 1.69331e-07, No Iterations 1
DILUPBiCGStab:  Solving for h, Initial residual = 0.0426125, Final residual = 4.98134e-09, No Iterations 1
min/max(T) = 285.447, 286.681
DICPCG:  Solving for p_rgh, Initial residual = 0.0366703, Final residual = 0.000355423, No Iterations 204
DICPCG:  Solving for p_rgh, Initial residual = 0.000640392, Final residual = 6.18209e-06, No Iterations 116
diagonal:  Solving for rho, Initial residual = 0, Final residual = 0, No Iterations 0
time step continuity errors : sum local = 6.33248e-09, global = -8.62545e-10, cumulative = -6.67029e-09
DICPCG:  Solving for p_rgh, Initial residual = 8.66237e-05, Final residual = 9.90796e-07, No Iterations 192
DICPCG:  Solving for p_rgh, Initial residual = 3.74549e-06, Final residual = 9.10967e-07, No Iterations 3
diagonal:  Solving for rho, Initial residual = 0, Final residual = 0, No Iterations 0
time step continuity errors : sum local = 8.24694e-09, global = 5.56814e-09, cumulative = -1.10215e-09
DILUPBiCGStab:  Solving for epsilon, Initial residual = 1.47576e-05, Final residual = 7.93887e-07, No Iterations 1
DILUPBiCGStab:  Solving for k, Initial residual = 0.00094436, Final residual = 1.2329e-07, No Iterations 2
ExecutionTime = 6.48 s  ClockTime = 7 s

Courant Number mean: 0.00344976 max: 2.13625
deltaT = 0.00324173
Time = 0.025184

diagonal:  Solving for rho, Initial residual = 0, Final residual = 0, No Iterations 0
PIMPLE: iteration 1
DILUPBiCGStab:  Solving for H2, Initial residual = 1.30134e-05, Final residual = 1.37866e-07, No Iterations 1
DILUPBiCGStab:  Solving for h, Initial residual = 0.0631447, Final residual = 9.11868e-09, No Iterations 1
min/max(T) = 285.428, 286.596
DICPCG:  Solving for p_rgh, Initial residual = 0.0400389, Final residual = 0.0003843, No Iterations 200
DICPCG:  Solving for p_rgh, Initial residual = 0.000811423, Final residual = 7.96716e-06, No Iterations 107
diagonal:  Solving for rho, Initial residual = 0, Final residual = 0, No Iterations 0
time step continuity errors : sum local = 6.43554e-09, global = -1.1371e-09, cumulative = -2.23925e-09
DICPCG:  Solving for p_rgh, Initial residual = 0.000106593, Final residual = 9.90752e-07, No Iterations 175
DICPCG:  Solving for p_rgh, Initial residual = 4.09e-06, Final residual = 9.26855e-07, No Iterations 3
diagonal:  Solving for rho, Initial residual = 0, Final residual = 0, No Iterations 0
time step continuity errors : sum local = 6.29363e-09, global = 3.9449e-09, cumulative = 1.70565e-09
DILUPBiCGStab:  Solving for epsilon, Initial residual = 9.64726e-06, Final residual = 5.16818e-07, No Iterations 1
DILUPBiCGStab:  Solving for k, Initial residual = 0.000539213, Final residual = 1.0299e-07, No Iterations 2
ExecutionTime = 6.9 s  ClockTime = 7 s

Courant Number mean: 0.00361111 max: 2.25819
deltaT = 0.00287128
Time = 0.0280552

diagonal:  Solving for rho, Initial residual = 0, Final residual = 0, No Iterations 0
PIMPLE: iteration 1
DILUPBiCGStab:  Solving for H2, Initial residual = 9.58469e-06, Final residual = 1.06993e-07, No Iterations 1
DILUPBiCGStab:  Solving for h, Initial residual = 0.0670081, Final residual = 1.18808e-08, No Iterations 1
min/max(T) = 285.309, 286.635
DICPCG:  Solving for p_rgh, Initial residual = 0.0290337, Final residual = 0.000287019, No Iterations 192
DICPCG:  Solving for p_rgh, Initial residual = 0.000539338, Final residual = 5.38929e-06, No Iterations 88
diagonal:  Solving for rho, Initial residual = 0, Final residual = 0, No Iterations 0
time step continuity errors : sum local = 3.98459e-09, global = -1.18402e-09, cumulative = 5.21628e-10
DICPCG:  Solving for p_rgh, Initial residual = 9.59079e-05, Final residual = 9.70593e-07, No Iterations 116
DICPCG:  Solving for p_rgh, Initial residual = 3.28202e-06, Final residual = 9.19886e-07, No Iterations 3
diagonal:  Solving for rho, Initial residual = 0, Final residual = 0, No Iterations 0
time step continuity errors : sum local = 3.28314e-09, global = 1.76694e-09, cumulative = 2.28856e-09
DILUPBiCGStab:  Solving for epsilon, Initial residual = 6.21615e-06, Final residual = 2.89517e-07, No Iterations 1
DILUPBiCGStab:  Solving for k, Initial residual = 0.000332473, Final residual = 6.0169e-08, No Iterations 2
ExecutionTime = 7.27 s  ClockTime = 8 s

Courant Number mean: 0.003461 max: 2.25911
deltaT = 0.00254192
Time = 0.0305971

diagonal:  Solving for rho, Initial residual = 0, Final residual = 0, No Iterations 0
PIMPLE: iteration 1
DILUPBiCGStab:  Solving for H2, Initial residual = 7.55614e-06, Final residual = 7.67094e-08, No Iterations 1
DILUPBiCGStab:  Solving for h, Initial residual = 0.0486426, Final residual = 9.22527e-09, No Iterations 1
min/max(T) = 285.23, 286.596
DICPCG:  Solving for p_rgh, Initial residual = 0.0110472, Final residual = 0.000108247, No Iterations 181
DICPCG:  Solving for p_rgh, Initial residual = 0.000234287, Final residual = 2.33127e-06, No Iterations 83
diagonal:  Solving for rho, Initial residual = 0, Final residual = 0, No Iterations 0
time step continuity errors : sum local = 1.62812e-09, global = -4.2086e-10, cumulative = 1.8677e-09
DICPCG:  Solving for p_rgh, Initial residual = 7.61003e-05, Final residual = 9.42588e-07, No Iterations 185
DICPCG:  Solving for p_rgh, Initial residual = 2.39921e-06, Final residual = 9.608e-07, No Iterations 1
diagonal:  Solving for rho, Initial residual = 0, Final residual = 0, No Iterations 0
time step continuity errors : sum local = 1.24415e-09, global = -1.38268e-11, cumulative = 1.85388e-09
DILUPBiCGStab:  Solving for epsilon, Initial residual = 4.29618e-06, Final residual = 1.72995e-07, No Iterations 1
DILUPBiCGStab:  Solving for k, Initial residual = 0.000219643, Final residual = 3.75861e-08, No Iterations 2
ExecutionTime = 7.66 s  ClockTime = 8 s

Courant Number mean: 0.00332139 max: 2.19621
deltaT = 0.0023147
Time = 0.0329118

diagonal:  Solving for rho, Initial residual = 0, Final residual = 0, No Iterations 0
PIMPLE: iteration 1
DILUPBiCGStab:  Solving for H2, Initial residual = 6.32982e-06, Final residual = 6.61091e-08, No Iterations 1
DILUPBiCGStab:  Solving for h, Initial residual = 0.0162241, Final residual = 8.26393e-09, No Iterations 1
min/max(T) = 285.161, 286.66
DICPCG:  Solving for p_rgh, Initial residual = 0.0100821, Final residual = 9.39066e-05, No Iterations 163
DICPCG:  Solving for p_rgh, Initial residual = 0.000136827, Final residual = 1.32051e-06, No Iterations 140
diagonal:  Solving for rho, Initial residual = 0, Final residual = 0, No Iterations 0
time step continuity errors : sum local = 7.14261e-10, global = 2.00496e-11, cumulative = 1.87393e-09
DICPCG:  Solving for p_rgh, Initial residual = 6.50127e-05, Final residual = 9.7088e-07, No Iterations 179
DICPCG:  Solving for p_rgh, Initial residual = 2.24331e-06, Final residual = 9.24623e-07, No Iterations 1
diagonal:  Solving for rho, Initial residual = 0, Final residual = 0, No Iterations 0
time step continuity errors : sum local = 1.54142e-09, global = -1.16445e-09, cumulative = 7.09474e-10
DILUPBiCGStab:  Solving for epsilon, Initial residual = 3.19076e-06, Final residual = 1.15681e-07, No Iterations 1
DILUPBiCGStab:  Solving for k, Initial residual = 0.000157269, Final residual = 7.91933e-07, No Iterations 1
ExecutionTime = 8.06 s  ClockTime = 9 s

Courant Number mean: 0.00331018 max: 2.18632
deltaT = 0.0021175
Time = 0.0350293

diagonal:  Solving for rho, Initial residual = 0, Final residual = 0, No Iterations 0
PIMPLE: iteration 1
DILUPBiCGStab:  Solving for H2, Initial residual = 5.32093e-06, Final residual = 4.82704e-08, No Iterations 1
DILUPBiCGStab:  Solving for h, Initial residual = 0.0114641, Final residual = 3.24994e-09, No Iterations 1
min/max(T) = 285.097, 286.727
DICPCG:  Solving for p_rgh, Initial residual = 0.019362, Final residual = 0.000187958, No Iterations 160
DICPCG:  Solving for p_rgh, Initial residual = 0.000237635, Final residual = 2.35864e-06, No Iterations 141
diagonal:  Solving for rho, Initial residual = 0, Final residual = 0, No Iterations 0
time step continuity errors : sum local = 1.06306e-09, global = 3.36043e-10, cumulative = 1.04552e-09
DICPCG:  Solving for p_rgh, Initial residual = 6.20936e-05, Final residual = 9.74099e-07, No Iterations 174
DICPCG:  Solving for p_rgh, Initial residual = 2.30915e-06, Final residual = 9.65429e-07, No Iterations 1
diagonal:  Solving for rho, Initial residual = 0, Final residual = 0, No Iterations 0
time step continuity errors : sum local = 2.29062e-09, global = -1.75907e-09, cumulative = -7.1355e-10
DILUPBiCGStab:  Solving for epsilon, Initial residual = 2.47167e-06, Final residual = 8.23765e-08, No Iterations 1
DILUPBiCGStab:  Solving for k, Initial residual = 0.000117875, Final residual = 5.56056e-07, No Iterations 1
ExecutionTime = 8.48 s  ClockTime = 9 s

Courant Number mean: 0.00325388 max: 2.11823
deltaT = 0.00199939
Time = 0.0370287

diagonal:  Solving for rho, Initial residual = 0, Final residual = 0, No Iterations 0
PIMPLE: iteration 1
DILUPBiCGStab:  Solving for H2, Initial residual = 4.69189e-06, Final residual = 4.12906e-08, No Iterations 1
DILUPBiCGStab:  Solving for h, Initial residual = 0.0173462, Final residual = 2.54453e-09, No Iterations 1
min/max(T) = 285.067, 286.734
DICPCG:  Solving for p_rgh, Initial residual = 0.0258223, Final residual = 0.000248287, No Iterations 159
DICPCG:  Solving for p_rgh, Initial residual = 0.000359015, Final residual = 3.57914e-06, No Iterations 107
diagonal:  Solving for rho, Initial residual = 0, Final residual = 0, No Iterations 0
time step continuity errors : sum local = 1.45585e-09, global = 3.70671e-10, cumulative = -3.42878e-10
DICPCG:  Solving for p_rgh, Initial residual = 6.62685e-05, Final residual = 9.54763e-07, No Iterations 170
DICPCG:  Solving for p_rgh, Initial residual = 2.352e-06, Final residual = 8.28967e-07, No Iterations 2
diagonal:  Solving for rho, Initial residual = 0, Final residual = 0, No Iterations 0
time step continuity errors : sum local = 2.55692e-09, global = -2.00567e-09, cumulative = -2.34855e-09
DILUPBiCGStab:  Solving for epsilon, Initial residual = 2.04192e-06, Final residual = 6.45162e-08, No Iterations 1
DILUPBiCGStab:  Solving for k, Initial residual = 9.35903e-05, Final residual = 4.28329e-07, No Iterations 1
ExecutionTime = 8.87 s  ClockTime = 9 s

Courant Number mean: 0.00325806 max: 2.0974
deltaT = 0.00190642
Time = 0.0389352

diagonal:  Solving for rho, Initial residual = 0, Final residual = 0, No Iterations 0
PIMPLE: iteration 1
DILUPBiCGStab:  Solving for H2, Initial residual = 4.16175e-06, Final residual = 3.63827e-08, No Iterations 1
DILUPBiCGStab:  Solving for h, Initial residual = 0.0183233, Final residual = 2.81384e-09, No Iterations 1
min/max(T) = 284.988, 286.799
DICPCG:  Solving for p_rgh, Initial residual = 0.0296108, Final residual = 0.000279772, No Iterations 157
DICPCG:  Solving for p_rgh, Initial residual = 0.000426717, Final residual = 4.18663e-06, No Iterations 100
diagonal:  Solving for rho, Initial residual = 0, Final residual = 0, No Iterations 0
time step continuity errors : sum local = 1.49383e-09, global = 3.5131e-10, cumulative = -1.99724e-09
DICPCG:  Solving for p_rgh, Initial residual = 7.15038e-05, Final residual = 9.74289e-07, No Iterations 165
DICPCG:  Solving for p_rgh, Initial residual = 2.31826e-06, Final residual = 8.02255e-07, No Iterations 2
diagonal:  Solving for rho, Initial residual = 0, Final residual = 0, No Iterations 0
time step continuity errors : sum local = 2.51365e-09, global = -1.9977e-09, cumulative = -3.99494e-09
DILUPBiCGStab:  Solving for epsilon, Initial residual = 1.72859e-06, Final residual = 5.23533e-08, No Iterations 1
DILUPBiCGStab:  Solving for k, Initial residual = 7.68069e-05, Final residual = 3.42522e-07, No Iterations 1
ExecutionTime = 9.26 s  ClockTime = 10 s

Courant Number mean: 0.00326067 max: 2.13231
deltaT = 0.00178802
Time = 0.0407232

diagonal:  Solving for rho, Initial residual = 0, Final residual = 0, No Iterations 0
PIMPLE: iteration 1
DILUPBiCGStab:  Solving for H2, Initial residual = 3.68517e-06, Final residual = 3.00867e-08, No Iterations 1
DILUPBiCGStab:  Solving for h, Initial residual = 0.0161223, Final residual = 9.89929e-07, No Iterations 1
min/max(T) = 285.129, 286.748
DICPCG:  Solving for p_rgh, Initial residual = 0.0305157, Final residual = 0.000297451, No Iterations 152
DICPCG:  Solving for p_rgh, Initial residual = 0.000444023, Final residual = 4.43475e-06, No Iterations 98
diagonal:  Solving for rho, Initial residual = 0, Final residual = 0, No Iterations 0
time step continuity errors : sum local = 1.35036e-09, global = 3.91009e-10, cumulative = -3.60393e-09
DICPCG:  Solving for p_rgh, Initial residual = 7.48321e-05, Final residual = 9.75628e-07, No Iterations 109
DICPCG:  Solving for p_rgh, Initial residual = 2.16329e-06, Final residual = 9.54597e-07, No Iterations 1
diagonal:  Solving for rho, Initial residual = 0, Final residual = 0, No Iterations 0
time step continuity errors : sum local = 2.23551e-09, global = -1.77833e-09, cumulative = -5.38226e-09
DILUPBiCGStab:  Solving for epsilon, Initial residual = 1.47776e-06, Final residual = 4.22857e-08, No Iterations 1
DILUPBiCGStab:  Solving for k, Initial residual = 6.30238e-05, Final residual = 2.67569e-07, No Iterations 1
ExecutionTime = 9.6 s  ClockTime = 10 s

Courant Number mean: 0.00318243 max: 2.0893
deltaT = 0.00171151
Time = 0.0424347

diagonal:  Solving for rho, Initial residual = 0, Final residual = 0, No Iterations 0
PIMPLE: iteration 1
DILUPBiCGStab:  Solving for H2, Initial residual = 3.33888e-06, Final residual = 2.71015e-08, No Iterations 1
DILUPBiCGStab:  Solving for h, Initial residual = 0.0129482, Final residual = 7.52728e-07, No Iterations 1
min/max(T) = 285.181, 286.757
DICPCG:  Solving for p_rgh, Initial residual = 0.0273654, Final residual = 0.000269399, No Iterations 147
DICPCG:  Solving for p_rgh, Initial residual = 0.000351207, Final residual = 3.36365e-06, No Iterations 106
diagonal:  Solving for rho, Initial residual = 0, Final residual = 0, No Iterations 0
time step continuity errors : sum local = 1.03979e-09, global = 4.16919e-10, cumulative = -4.96534e-09
DICPCG:  Solving for p_rgh, Initial residual = 7.0467e-05, Final residual = 9.60192e-07, No Iterations 134
DICPCG:  Solving for p_rgh, Initial residual = 1.84993e-06, Final residual = 8.44775e-07, No Iterations 1
diagonal:  Solving for rho, Initial residual = 0, Final residual = 0, No Iterations 0
time step continuity errors : sum local = 1.80649e-09, global = -1.53735e-09, cumulative = -6.50269e-09
DILUPBiCGStab:  Solving for epsilon, Initial residual = 1.26571e-06, Final residual = 3.60125e-08, No Iterations 1
DILUPBiCGStab:  Solving for k, Initial residual = 5.38953e-05, Final residual = 2.2208e-07, No Iterations 1
ExecutionTime = 9.97 s  ClockTime = 11 s

Courant Number mean: 0.00315214 max: 2.06977
deltaT = 0.00165381
Time = 0.0440885

diagonal:  Solving for rho, Initial residual = 0, Final residual = 0, No Iterations 0
PIMPLE: iteration 1
DILUPBiCGStab:  Solving for H2, Initial residual = 3.08252e-06, Final residual = 2.32951e-08, No Iterations 1
DILUPBiCGStab:  Solving for h, Initial residual = 0.00935776, Final residual = 5.16634e-07, No Iterations 1
min/max(T) = 285.258, 286.728
DICPCG:  Solving for p_rgh, Initial residual = 0.0190801, Final residual = 0.000184109, No Iterations 143
DICPCG:  Solving for p_rgh, Initial residual = 0.000230214, Final residual = 2.28819e-06, No Iterations 104
diagonal:  Solving for rho, Initial residual = 0, Final residual = 0, No Iterations 0
time step continuity errors : sum local = 7.70699e-10, global = 3.41584e-10, cumulative = -6.16111e-09
DICPCG:  Solving for p_rgh, Initial residual = 6.32276e-05, Final residual = 9.88969e-07, No Iterations 132
DICPCG:  Solving for p_rgh, Initial residual = 1.77471e-06, Final residual = 8.12409e-07, No Iterations 1
diagonal:  Solving for rho, Initial residual = 0, Final residual = 0, No Iterations 0
time step continuity errors : sum local = 1.40184e-09, global = -1.22796e-09, cumulative = -7.38907e-09
DILUPBiCGStab:  Solving for epsilon, Initial residual = 1.14977e-06, Final residual = 3.20737e-08, No Iterations 1
DILUPBiCGStab:  Solving for k, Initial residual = 4.68935e-05, Final residual = 1.89969e-07, No Iterations 1
ExecutionTime = 10.34 s  ClockTime = 11 s

Courant Number mean: 0.0031397 max: 2.09325
deltaT = 0.00158005
Time = 0.0456686

diagonal:  Solving for rho, Initial residual = 0, Final residual = 0, No Iterations 0
PIMPLE: iteration 1
DILUPBiCGStab:  Solving for H2, Initial residual = 2.79865e-06, Final residual = 2.16818e-08, No Iterations 1
DILUPBiCGStab:  Solving for h, Initial residual = 0.00604326, Final residual = 3.3551e-07, No Iterations 1
min/max(T) = 285.295, 286.727
DICPCG:  Solving for p_rgh, Initial residual = 0.0135467, Final residual = 0.000124931, No Iterations 138
DICPCG:  Solving for p_rgh, Initial residual = 0.000147162, Final residual = 1.4247e-06, No Iterations 110
diagonal:  Solving for rho, Initial residual = 0, Final residual = 0, No Iterations 0
time step continuity errors : sum local = 5.1573e-10, global = 2.55441e-10, cumulative = -7.13363e-09
DICPCG:  Solving for p_rgh, Initial residual = 5.73543e-05, Final residual = 9.65941e-07, No Iterations 129
DICPCG:  Solving for p_rgh, Initial residual = 1.71113e-06, Final residual = 7.97146e-07, No Iterations 1
diagonal:  Solving for rho, Initial residual = 0, Final residual = 0, No Iterations 0
time step continuity errors : sum local = 1.03617e-09, global = -9.09547e-10, cumulative = -8.04318e-09
DILUPBiCGStab:  Solving for epsilon, Initial residual = 1.01341e-06, Final residual = 2.77901e-08, No Iterations 1
DILUPBiCGStab:  Solving for k, Initial residual = 4.09406e-05, Final residual = 1.59782e-07, No Iterations 1
ExecutionTime = 10.68 s  ClockTime = 11 s

Courant Number mean: 0.00308288 max: 2.07906
deltaT = 0.00151998
Time = 0.0471885

diagonal:  Solving for rho, Initial residual = 0, Final residual = 0, No Iterations 0
PIMPLE: iteration 1
DILUPBiCGStab:  Solving for H2, Initial residual = 2.59242e-06, Final residual = 1.86189e-08, No Iterations 1
DILUPBiCGStab:  Solving for h, Initial residual = 0.00415545, Final residual = 2.61212e-07, No Iterations 1
min/max(T) = 285.334, 286.705
DICPCG:  Solving for p_rgh, Initial residual = 0.012971, Final residual = 0.000128384, No Iterations 126
DICPCG:  Solving for p_rgh, Initial residual = 0.000136134, Final residual = 1.32219e-06, No Iterations 143
diagonal:  Solving for rho, Initial residual = 0, Final residual = 0, No Iterations 0
time step continuity errors : sum local = 4.03393e-10, global = 1.98649e-10, cumulative = -7.84453e-09
DICPCG:  Solving for p_rgh, Initial residual = 5.52342e-05, Final residual = 9.82493e-07, No Iterations 126
DICPCG:  Solving for p_rgh, Initial residual = 1.77124e-06, Final residual = 8.14596e-07, No Iterations 1
diagonal:  Solving for rho, Initial residual = 0, Final residual = 0, No Iterations 0
time step continuity errors : sum local = 7.57672e-10, global = -6.3036e-10, cumulative = -8.47489e-09
DILUPBiCGStab:  Solving for epsilon, Initial residual = 9.24288e-07, Final residual = 9.24288e-07, No Iterations 0
DILUPBiCGStab:  Solving for k, Initial residual = 3.64498e-05, Final residual = 1.37635e-07, No Iterations 1
ExecutionTime = 11.05 s  ClockTime = 12 s

Courant Number mean: 0.0030421 max: 2.05961
deltaT = 0.00147602
Time = 0.0486646

diagonal:  Solving for rho, Initial residual = 0, Final residual = 0, No Iterations 0
PIMPLE: iteration 1
DILUPBiCGStab:  Solving for H2, Initial residual = 2.41877e-06, Final residual = 1.88101e-08, No Iterations 1
DILUPBiCGStab:  Solving for h, Initial residual = 0.00360673, Final residual = 2.72007e-07, No Iterations 1
min/max(T) = 285.363, 286.695
DICPCG:  Solving for p_rgh, Initial residual = 0.0140103, Final residual = 0.000134328, No Iterations 140
DICPCG:  Solving for p_rgh, Initial residual = 0.000160459, Final residual = 1.58879e-06, No Iterations 122
diagonal:  Solving for rho, Initial residual = 0, Final residual = 0, No Iterations 0
time step continuity errors : sum local = 3.87722e-10, global = 9.14123e-11, cumulative = -8.38348e-09
DICPCG:  Solving for p_rgh, Initial residual = 5.65212e-05, Final residual = 9.51271e-07, No Iterations 125
DICPCG:  Solving for p_rgh, Initial residual = 1.82644e-06, Final residual = 8.17106e-07, No Iterations 1
diagonal:  Solving for rho, Initial residual = 0, Final residual = 0, No Iterations 0
time step continuity errors : sum local = 5.85242e-10, global = -4.08447e-10, cumulative = -8.79193e-09
DILUPBiCGStab:  Solving for epsilon, Initial residual = 9.74747e-07, Final residual = 9.74747e-07, No Iterations 0
DILUPBiCGStab:  Solving for k, Initial residual = 3.4261e-05, Final residual = 1.7942e-07, No Iterations 1
ExecutionTime = 11.4 s  ClockTime = 12 s

Courant Number mean: 0.00302677 max: 2.06739
deltaT = 0.00142794
Time = 0.0500925

diagonal:  Solving for rho, Initial residual = 0, Final residual = 0, No Iterations 0
PIMPLE: iteration 1
DILUPBiCGStab:  Solving for H2, Initial residual = 2.25845e-06, Final residual = 1.9884e-08, No Iterations 1
DILUPBiCGStab:  Solving for h, Initial residual = 0.00332822, Final residual = 3.10063e-07, No Iterations 1
min/max(T) = 285.378, 286.682
DICPCG:  Solving for p_rgh, Initial residual = 0.0176245, Final residual = 0.000169572, No Iterations 140
DICPCG:  Solving for p_rgh, Initial residual = 0.000219888, Final residual = 2.16426e-06, No Iterations 110
diagonal:  Solving for rho, Initial residual = 0, Final residual = 0, No Iterations 0
time step continuity errors : sum local = 4.36218e-10, global = 6.33202e-11, cumulative = -8.72861e-09
DICPCG:  Solving for p_rgh, Initial residual = 5.9618e-05, Final residual = 9.43298e-07, No Iterations 125
DICPCG:  Solving for p_rgh, Initial residual = 1.90192e-06, Final residual = 8.39266e-07, No Iterations 1
diagonal:  Solving for rho, Initial residual = 0, Final residual = 0, No Iterations 0
time step continuity errors : sum local = 5.88658e-10, global = -2.40647e-10, cumulative = -8.96925e-09
DILUPBiCGStab:  Solving for epsilon, Initial residual = 1.00931e-06, Final residual = 3.14802e-08, No Iterations 1
DILUPBiCGStab:  Solving for k, Initial residual = 3.23637e-05, Final residual = 2.25288e-07, No Iterations 1
ExecutionTime = 11.77 s  ClockTime = 12 s

Courant Number mean: 0.00299751 max: 2.0626
deltaT = 0.00138462
Time = 0.0514771

diagonal:  Solving for rho, Initial residual = 0, Final residual = 0, No Iterations 0
PIMPLE: iteration 1
DILUPBiCGStab:  Solving for H2, Initial residual = 2.11632e-06, Final residual = 1.75916e-08, No Iterations 1
DILUPBiCGStab:  Solving for h, Initial residual = 0.00338582, Final residual = 3.16431e-07, No Iterations 1
min/max(T) = 285.404, 286.664
DICPCG:  Solving for p_rgh, Initial residual = 0.0225619, Final residual = 0.000222237, No Iterations 138
DICPCG:  Solving for p_rgh, Initial residual = 0.000292688, Final residual = 2.81941e-06, No Iterations 110
diagonal:  Solving for rho, Initial residual = 0, Final residual = 0, No Iterations 0
time step continuity errors : sum local = 4.9439e-10, global = 1.91629e-11, cumulative = -8.95009e-09
DICPCG:  Solving for p_rgh, Initial residual = 6.33538e-05, Final residual = 9.75268e-07, No Iterations 124
DICPCG:  Solving for p_rgh, Initial residual = 1.96493e-06, Final residual = 8.65509e-07, No Iterations 1
diagonal:  Solving for rho, Initial residual = 0, Final residual = 0, No Iterations 0
time step continuity errors : sum local = 6.86747e-10, global = -1.29921e-10, cumulative = -9.08001e-09
DILUPBiCGStab:  Solving for epsilon, Initial residual = 8.67145e-07, Final residual = 8.67145e-07, No Iterations 0
DILUPBiCGStab:  Solving for k, Initial residual = 2.9249e-05, Final residual = 1.96202e-07, No Iterations 1
ExecutionTime = 12.12 s  ClockTime = 13 s

Courant Number mean: 0.00297511 max: 2.06406
deltaT = 0.00134168
Time = 0.0528188

diagonal:  Solving for rho, Initial residual = 0, Final residual = 0, No Iterations 0
PIMPLE: iteration 1
DILUPBiCGStab:  Solving for H2, Initial residual = 1.98857e-06, Final residual = 2.12595e-08, No Iterations 1
DILUPBiCGStab:  Solving for h, Initial residual = 0.00348051, Final residual = 3.20738e-07, No Iterations 1
min/max(T) = 285.407, 286.658
DICPCG:  Solving for p_rgh, Initial residual = 0.0269832, Final residual = 0.000266993, No Iterations 136
DICPCG:  Solving for p_rgh, Initial residual = 0.000339243, Final residual = 3.30674e-06, No Iterations 110
diagonal:  Solving for rho, Initial residual = 0, Final residual = 0, No Iterations 0
time step continuity errors : sum local = 5.37419e-10, global = -1.13577e-11, cumulative = -9.09137e-09
DICPCG:  Solving for p_rgh, Initial residual = 6.52853e-05, Final residual = 9.96726e-07, No Iterations 124
DICPCG:  Solving for p_rgh, Initial residual = 2.19068e-06, Final residual = 9.50081e-07, No Iterations 1
diagonal:  Solving for rho, Initial residual = 0, Final residual = 0, No Iterations 0
time step continuity errors : sum local = 7.47949e-10, global = -7.08286e-11, cumulative = -9.1622e-09
DILUPBiCGStab:  Solving for epsilon, Initial residual = 9.0634e-07, Final residual = 9.0634e-07, No Iterations 0
DILUPBiCGStab:  Solving for k, Initial residual = 2.82797e-05, Final residual = 2.39073e-07, No Iterations 1
ExecutionTime = 12.48 s  ClockTime = 13 s

Courant Number mean: 0.00294886 max: 2.05335
deltaT = 0.00130678
Time = 0.0541256

diagonal:  Solving for rho, Initial residual = 0, Final residual = 0, No Iterations 0
PIMPLE: iteration 1
DILUPBiCGStab:  Solving for H2, Initial residual = 1.88239e-06, Final residual = 3.70091e-08, No Iterations 1
DILUPBiCGStab:  Solving for h, Initial residual = 0.00335354, Final residual = 3.43885e-07, No Iterations 1
min/max(T) = 285.472, 286.652
DICPCG:  Solving for p_rgh, Initial residual = 0.0292302, Final residual = 0.000278418, No Iterations 135
DICPCG:  Solving for p_rgh, Initial residual = 0.000310963, Final residual = 3.08195e-06, No Iterations 110
diagonal:  Solving for rho, Initial residual = 0, Final residual = 0, No Iterations 0
time step continuity errors : sum local = 5.2638e-10, global = -2.11604e-11, cumulative = -9.18336e-09
DICPCG:  Solving for p_rgh, Initial residual = 5.99307e-05, Final residual = 9.65831e-07, No Iterations 126
DICPCG:  Solving for p_rgh, Initial residual = 2.01735e-06, Final residual = 9.13971e-07, No Iterations 1
diagonal:  Solving for rho, Initial residual = 0, Final residual = 0, No Iterations 0
time step continuity errors : sum local = 7.53469e-10, global = -5.55623e-11, cumulative = -9.23892e-09
DILUPBiCGStab:  Solving for epsilon, Initial residual = 9.60127e-07, Final residual = 9.60127e-07, No Iterations 0
DILUPBiCGStab:  Solving for k, Initial residual = 2.81767e-05, Final residual = 2.86626e-07, No Iterations 1
ExecutionTime = 12.85 s  ClockTime = 13 s

Courant Number mean: 0.00293493 max: 2.05414
deltaT = 0.00127234
Time = 0.0553979

diagonal:  Solving for rho, Initial residual = 0, Final residual = 0, No Iterations 0
PIMPLE: iteration 1
DILUPBiCGStab:  Solving for H2, Initial residual = 1.79645e-06, Final residual = 7.97378e-08, No Iterations 1
DILUPBiCGStab:  Solving for h, Initial residual = 0.00304172, Final residual = 4.09586e-07, No Iterations 1
min/max(T) = 285.627, 286.822
DICPCG:  Solving for p_rgh, Initial residual = 0.0265496, Final residual = 0.000253876, No Iterations 133
DICPCG:  Solving for p_rgh, Initial residual = 0.00027106, Final residual = 2.65039e-06, No Iterations 115
diagonal:  Solving for rho, Initial residual = 0, Final residual = 0, No Iterations 0
time step continuity errors : sum local = 4.74031e-10, global = -3.21752e-11, cumulative = -9.27109e-09
DICPCG:  Solving for p_rgh, Initial residual = 5.28908e-05, Final residual = 9.57256e-07, No Iterations 93
DICPCG:  Solving for p_rgh, Initial residual = 1.57943e-06, Final residual = 8.00873e-07, No Iterations 1
diagonal:  Solving for rho, Initial residual = 0, Final residual = 0, No Iterations 0
time step continuity errors : sum local = 6.93429e-10, global = -7.44661e-11, cumulative = -9.34556e-09
DILUPBiCGStab:  Solving for epsilon, Initial residual = 1.08158e-06, Final residual = 5.28464e-08, No Iterations 1
DILUPBiCGStab:  Solving for k, Initial residual = 2.85184e-05, Final residual = 3.28836e-07, No Iterations 1
ExecutionTime = 13.19 s  ClockTime = 14 s

Courant Number mean: 0.00291731 max: 2.04639
deltaT = 0.00124354
Time = 0.0566415

diagonal:  Solving for rho, Initial residual = 0, Final residual = 0, No Iterations 0
PIMPLE: iteration 1
DILUPBiCGStab:  Solving for H2, Initial residual = 1.64825e-06, Final residual = 5.66585e-08, No Iterations 1
DILUPBiCGStab:  Solving for h, Initial residual = 0.00265854, Final residual = 3.06372e-07, No Iterations 1
min/max(T) = 285.67, 286.893
DICPCG:  Solving for p_rgh, Initial residual = 0.022267, Final residual = 0.000211684, No Iterations 131
DICPCG:  Solving for p_rgh, Initial residual = 0.000224612, Final residual = 2.18099e-06, No Iterations 117
diagonal:  Solving for rho, Initial residual = 0, Final residual = 0, No Iterations 0
time step continuity errors : sum local = 4.17181e-10, global = -2.24143e-11, cumulative = -9.36798e-09
DICPCG:  Solving for p_rgh, Initial residual = 4.71718e-05, Final residual = 9.76617e-07, No Iterations 72
DICPCG:  Solving for p_rgh, Initial residual = 1.44946e-06, Final residual = 6.92693e-07, No Iterations 1
diagonal:  Solving for rho, Initial residual = 0, Final residual = 0, No Iterations 0
time step continuity errors : sum local = 6.05987e-10, global = -1.12542e-10, cumulative = -9.48052e-09
DILUPBiCGStab:  Solving for epsilon, Initial residual = 8.44767e-07, Final residual = 8.44767e-07, No Iterations 0
DILUPBiCGStab:  Solving for k, Initial residual = 2.48712e-05, Final residual = 2.7625e-07, No Iterations 1
ExecutionTime = 13.51 s  ClockTime = 14 s

Courant Number mean: 0.00290957 max: 2.04999
deltaT = 0.0012132
Time = 0.0578546

diagonal:  Solving for rho, Initial residual = 0, Final residual = 0, No Iterations 0
PIMPLE: iteration 1
DILUPBiCGStab:  Solving for H2, Initial residual = 1.58515e-06, Final residual = 1.00526e-07, No Iterations 1
DILUPBiCGStab:  Solving for h, Initial residual = 0.00220445, Final residual = 3.53038e-07, No Iterations 1
min/max(T) = 285.87, 287.108
DICPCG:  Solving for p_rgh, Initial residual = 0.0178465, Final residual = 0.000171989, No Iterations 129
DICPCG:  Solving for p_rgh, Initial residual = 0.000181371, Final residual = 1.76953e-06, No Iterations 117
diagonal:  Solving for rho, Initial residual = 0, Final residual = 0, No Iterations 0
time step continuity errors : sum local = 3.55762e-10, global = -7.586e-12, cumulative = -9.4881e-09
DICPCG:  Solving for p_rgh, Initial residual = 4.34374e-05, Final residual = 9.22902e-07, No Iterations 53
DICPCG:  Solving for p_rgh, Initial residual = 1.35181e-06, Final residual = 7.95213e-07, No Iterations 1
diagonal:  Solving for rho, Initial residual = 0, Final residual = 0, No Iterations 0
time step continuity errors : sum local = 5.25429e-10, global = -1.54799e-10, cumulative = -9.6429e-09
DILUPBiCGStab:  Solving for epsilon, Initial residual = 9.11009e-07, Final residual = 9.11009e-07, No Iterations 0
DILUPBiCGStab:  Solving for k, Initial residual = 2.47608e-05, Final residual = 3.00014e-07, No Iterations 1
ExecutionTime = 13.84 s  ClockTime = 14 s

Courant Number mean: 0.00289597 max: 2.11564
deltaT = 0.00114686
Time = 0.0590015

diagonal:  Solving for rho, Initial residual = 0, Final residual = 0, No Iterations 0
PIMPLE: iteration 1
DILUPBiCGStab:  Solving for H2, Initial residual = 1.4118e-06, Final residual = 1.31588e-07, No Iterations 1
DILUPBiCGStab:  Solving for h, Initial residual = 0.00171176, Final residual = 3.85653e-07, No Iterations 1
min/max(T) = 286.105, 287.372
DICPCG:  Solving for p_rgh, Initial residual = 0.0141101, Final residual = 0.000139891, No Iterations 125
DICPCG:  Solving for p_rgh, Initial residual = 0.000146195, Final residual = 1.39504e-06, No Iterations 121
diagonal:  Solving for rho, Initial residual = 0, Final residual = 0, No Iterations 0
time step continuity errors : sum local = 2.81745e-10, global = -3.19832e-12, cumulative = -9.6461e-09
DICPCG:  Solving for p_rgh, Initial residual = 3.92264e-05, Final residual = 9.93265e-07, No Iterations 116
DICPCG:  Solving for p_rgh, Initial residual = 1.9037e-06, Final residual = 9.44752e-07, No Iterations 1
diagonal:  Solving for rho, Initial residual = 0, Final residual = 0, No Iterations 0
time step continuity errors : sum local = 4.57251e-10, global = -2.18516e-10, cumulative = -9.86462e-09
DILUPBiCGStab:  Solving for epsilon, Initial residual = 9.93068e-07, Final residual = 9.93068e-07, No Iterations 0
DILUPBiCGStab:  Solving for k, Initial residual = 2.36932e-05, Final residual = 2.82928e-07, No Iterations 1
ExecutionTime = 14.19 s  ClockTime = 15 s

Courant Number mean: 0.00278932 max: 2.1372
deltaT = 0.00107319
Time = 0.0600747

diagonal:  Solving for rho, Initial residual = 0, Final residual = 0, No Iterations 0
PIMPLE: iteration 1
DILUPBiCGStab:  Solving for H2, Initial residual = 1.31165e-06, Final residual = 1.30837e-07, No Iterations 1
DILUPBiCGStab:  Solving for h, Initial residual = 0.00130593, Final residual = 4.28636e-07, No Iterations 1
min/max(T) = 286.134, 287.504
DICPCG:  Solving for p_rgh, Initial residual = 0.0116939, Final residual = 0.000115079, No Iterations 116
DICPCG:  Solving for p_rgh, Initial residual = 0.000118952, Final residual = 1.15042e-06, No Iterations 121
diagonal:  Solving for rho, Initial residual = 0, Final residual = 0, No Iterations 0
time step continuity errors : sum local = 2.17441e-10, global = 2.90855e-11, cumulative = -9.83553e-09
DICPCG:  Solving for p_rgh, Initial residual = 3.51162e-05, Final residual = 9.65628e-07, No Iterations 124
DICPCG:  Solving for p_rgh, Initial residual = 2.37351e-06, Final residual = 8.6594e-07, No Iterations 2
diagonal:  Solving for rho, Initial residual = 0, Final residual = 0, No Iterations 0
time step continuity errors : sum local = 4.19815e-10, global = -2.63098e-10, cumulative = -1.00986e-08
DILUPBiCGStab:  Solving for epsilon, Initial residual = 1.16871e-06, Final residual = 9.57313e-08, No Iterations 1
DILUPBiCGStab:  Solving for k, Initial residual = 2.32926e-05, Final residual = 2.67945e-07, No Iterations 1
ExecutionTime = 14.55 s  ClockTime = 15 s

Courant Number mean: 0.00265551 max: 2.03545
deltaT = 0.00105452
Time = 0.0611292

diagonal:  Solving for rho, Initial residual = 0, Final residual = 0, No Iterations 0
PIMPLE: iteration 1
DILUPBiCGStab:  Solving for H2, Initial residual = 1.0318e-06, Final residual = 8.94929e-08, No Iterations 1
DILUPBiCGStab:  Solving for h, Initial residual = 0.00110948, Final residual = 2.69693e-07, No Iterations 1
min/max(T) = 286.134, 287.542
DICPCG:  Solving for p_rgh, Initial residual = 0.0103453, Final residual = 0.000103434, No Iterations 100
DICPCG:  Solving for p_rgh, Initial residual = 0.000104703, Final residual = 1.04439e-06, No Iterations 126
diagonal:  Solving for rho, Initial residual = 0, Final residual = 0, No Iterations 0
time step continuity errors : sum local = 1.98445e-10, global = 4.36112e-11, cumulative = -1.0055e-08
DICPCG:  Solving for p_rgh, Initial residual = 3.33093e-05, Final residual = 9.97053e-07, No Iterations 107
DICPCG:  Solving for p_rgh, Initial residual = 2.03835e-06, Final residual = 9.54573e-07, No Iterations 1
diagonal:  Solving for rho, Initial residual = 0, Final residual = 0, No Iterations 0
time step continuity errors : sum local = 4.64697e-10, global = -3.19654e-10, cumulative = -1.03747e-08
DILUPBiCGStab:  Solving for epsilon, Initial residual = 6.9093e-07, Final residual = 6.9093e-07, No Iterations 0
DILUPBiCGStab:  Solving for k, Initial residual = 1.80269e-05, Final residual = 2.45276e-07, No Iterations 1
ExecutionTime = 14.88 s  ClockTime = 15 s

Courant Number mean: 0.00265304 max: 1.93114
deltaT = 0.00109218
Time = 0.0622214

diagonal:  Solving for rho, Initial residual = 0, Final residual = 0, No Iterations 0
PIMPLE: iteration 1
DILUPBiCGStab:  Solving for H2, Initial residual = 1.0926e-06, Final residual = 1.08615e-07, No Iterations 1
DILUPBiCGStab:  Solving for h, Initial residual = 0.00104053, Final residual = 3.28199e-07, No Iterations 1
min/max(T) = 286.134, 287.7
DICPCG:  Solving for p_rgh, Initial residual = 0.0097498, Final residual = 9.70281e-05, No Iterations 44
DICPCG:  Solving for p_rgh, Initial residual = 0.000101051, Final residual = 9.43747e-07, No Iterations 93
diagonal:  Solving for rho, Initial residual = 0, Final residual = 0, No Iterations 0
time step continuity errors : sum local = 1.90622e-10, global = 7.07719e-11, cumulative = -1.03039e-08
DICPCG:  Solving for p_rgh, Initial residual = 3.53526e-05, Final residual = 9.82617e-07, No Iterations 93
DICPCG:  Solving for p_rgh, Initial residual = 1.88263e-06, Final residual = 9.24829e-07, No Iterations 1
diagonal:  Solving for rho, Initial residual = 0, Final residual = 0, No Iterations 0
time step continuity errors : sum local = 5.32277e-10, global = -3.96421e-10, cumulative = -1.07003e-08
DILUPBiCGStab:  Solving for epsilon, Initial residual = 8.10019e-07, Final residual = 8.10019e-07, No Iterations 0
DILUPBiCGStab:  Solving for k, Initial residual = 1.91623e-05, Final residual = 2.77829e-07, No Iterations 1
ExecutionTime = 15.17 s  ClockTime = 16 s

Courant Number mean: 0.00279444 max: 2.0043
deltaT = 0.00108979
Time = 0.0633112

diagonal:  Solving for rho, Initial residual = 0, Final residual = 0, No Iterations 0
PIMPLE: iteration 1
DILUPBiCGStab:  Solving for H2, Initial residual = 1.08244e-06, Final residual = 1.19852e-07, No Iterations 1
DILUPBiCGStab:  Solving for h, Initial residual = 0.000952342, Final residual = 3.42799e-07, No Iterations 1
min/max(T) = 286.134, 287.862
DICPCG:  Solving for p_rgh, Initial residual = 0.00932168, Final residual = 9.04182e-05, No Iterations 91
DICPCG:  Solving for p_rgh, Initial residual = 0.000100035, Final residual = 9.37676e-07, No Iterations 121
diagonal:  Solving for rho, Initial residual = 0, Final residual = 0, No Iterations 0
time step continuity errors : sum local = 2.00712e-10, global = 7.32886e-11, cumulative = -1.0627e-08
DICPCG:  Solving for p_rgh, Initial residual = 3.76092e-05, Final residual = 9.80773e-07, No Iterations 105
DICPCG:  Solving for p_rgh, Initial residual = 2.04941e-06, Final residual = 8.17393e-07, No Iterations 2
diagonal:  Solving for rho, Initial residual = 0, Final residual = 0, No Iterations 0
time step continuity errors : sum local = 5.71926e-10, global = -4.54691e-10, cumulative = -1.10817e-08
DILUPBiCGStab:  Solving for epsilon, Initial residual = 9.46861e-07, Final residual = 9.46861e-07, No Iterations 0
DILUPBiCGStab:  Solving for k, Initial residual = 2.0501e-05, Final residual = 2.95284e-07, No Iterations 1
ExecutionTime = 15.5 s  ClockTime = 16 s

Courant Number mean: 0.00283429 max: 2.02367
deltaT = 0.00107703
Time = 0.0643882

diagonal:  Solving for rho, Initial residual = 0, Final residual = 0, No Iterations 0
PIMPLE: iteration 1
DILUPBiCGStab:  Solving for H2, Initial residual = 1.07575e-06, Final residual = 1.37478e-07, No Iterations 1
DILUPBiCGStab:  Solving for h, Initial residual = 0.00088284, Final residual = 3.30061e-07, No Iterations 1
min/max(T) = 286.134, 287.962
DICPCG:  Solving for p_rgh, Initial residual = 0.00969827, Final residual = 9.02647e-05, No Iterations 110
DICPCG:  Solving for p_rgh, Initial residual = 0.00010463, Final residual = 1.02818e-06, No Iterations 123
diagonal:  Solving for rho, Initial residual = 0, Final residual = 0, No Iterations 0
time step continuity errors : sum local = 2.13318e-10, global = 9.59545e-11, cumulative = -1.09858e-08
DICPCG:  Solving for p_rgh, Initial residual = 3.90948e-05, Final residual = 9.94336e-07, No Iterations 111
DICPCG:  Solving for p_rgh, Initial residual = 2.28512e-06, Final residual = 8.95082e-07, No Iterations 2
diagonal:  Solving for rho, Initial residual = 0, Final residual = 0, No Iterations 0
time step continuity errors : sum local = 6.26825e-10, global = -4.95893e-10, cumulative = -1.14817e-08
DILUPBiCGStab:  Solving for epsilon, Initial residual = 1.15846e-06, Final residual = 1.05111e-07, No Iterations 1
DILUPBiCGStab:  Solving for k, Initial residual = 2.37873e-05, Final residual = 3.17305e-07, No Iterations 1
ExecutionTime = 15.84 s  ClockTime = 16 s

Courant Number mean: 0.00284546 max: 2.01094
deltaT = 0.00107122
Time = 0.0654595

diagonal:  Solving for rho, Initial residual = 0, Final residual = 0, No Iterations 0
PIMPLE: iteration 1
DILUPBiCGStab:  Solving for H2, Initial residual = 9.0214e-07, Final residual = 9.0214e-07, No Iterations 0
DILUPBiCGStab:  Solving for h, Initial residual = 0.000870529, Final residual = 2.25318e-07, No Iterations 1
min/max(T) = 285.725, 287.372
DICPCG:  Solving for p_rgh, Initial residual = 0.0114231, Final residual = 0.00011378, No Iterations 112
DICPCG:  Solving for p_rgh, Initial residual = 0.000139375, Final residual = 1.35456e-06, No Iterations 118
diagonal:  Solving for rho, Initial residual = 0, Final residual = 0, No Iterations 0
time step continuity errors : sum local = 2.85659e-10, global = 1.09761e-10, cumulative = -1.13719e-08
DICPCG:  Solving for p_rgh, Initial residual = 4.56957e-05, Final residual = 9.89139e-07, No Iterations 132
DICPCG:  Solving for p_rgh, Initial residual = 3.74127e-06, Final residual = 8.95607e-07, No Iterations 36
diagonal:  Solving for rho, Initial residual = 0, Final residual = 0, No Iterations 0
time step continuity errors : sum local = 6.73303e-10, global = -5.29658e-10, cumulative = -1.19016e-08
DILUPBiCGStab:  Solving for epsilon, Initial residual = 8.94117e-07, Final residual = 8.94117e-07, No Iterations 0
DILUPBiCGStab:  Solving for k, Initial residual = 2.09313e-05, Final residual = 2.76282e-07, No Iterations 1
ExecutionTime = 16.21 s  ClockTime = 17 s

Courant Number mean: 0.00287329 max: 2.02332
deltaT = 0.00105889
Time = 0.0665183

diagonal:  Solving for rho, Initial residual = 0, Final residual = 0, No Iterations 0
PIMPLE: iteration 1
DILUPBiCGStab:  Solving for H2, Initial residual = 1.15765e-06, Final residual = 1.26314e-07, No Iterations 1
DILUPBiCGStab:  Solving for h, Initial residual = 0.000952587, Final residual = 2.41731e-07, No Iterations 1
min/max(T) = 286.096, 287.264
DICPCG:  Solving for p_rgh, Initial residual = 0.013371, Final residual = 0.000132272, No Iterations 105
DICPCG:  Solving for p_rgh, Initial residual = 0.000170816, Final residual = 1.69495e-06, No Iterations 116
diagonal:  Solving for rho, Initial residual = 0, Final residual = 0, No Iterations 0
time step continuity errors : sum local = 3.31002e-10, global = 1.30825e-10, cumulative = -1.17707e-08
DICPCG:  Solving for p_rgh, Initial residual = 4.76797e-05, Final residual = 9.80795e-07, No Iterations 121
DICPCG:  Solving for p_rgh, Initial residual = 2.81672e-06, Final residual = 9.992e-07, No Iterations 16
diagonal:  Solving for rho, Initial residual = 0, Final residual = 0, No Iterations 0
time step continuity errors : sum local = 7.03893e-10, global = -5.57809e-10, cumulative = -1.23285e-08
DILUPBiCGStab:  Solving for epsilon, Initial residual = 8.68115e-07, Final residual = 8.68115e-07, No Iterations 0
DILUPBiCGStab:  Solving for k, Initial residual = 2.78477e-05, Final residual = 3.97929e-07, No Iterations 1
ExecutionTime = 16.56 s  ClockTime = 17 s

Courant Number mean: 0.00288177 max: 1.993
deltaT = 0.00106263
Time = 0.067581

diagonal:  Solving for rho, Initial residual = 0, Final residual = 0, No Iterations 0
PIMPLE: iteration 1
DILUPBiCGStab:  Solving for H2, Initial residual = 1.3208e-06, Final residual = 1.67952e-07, No Iterations 1
DILUPBiCGStab:  Solving for h, Initial residual = 0.00105946, Final residual = 3.55483e-07, No Iterations 1
min/max(T) = 286.133, 287.275
DICPCG:  Solving for p_rgh, Initial residual = 0.0155741, Final residual = 0.000151505, No Iterations 111
DICPCG:  Solving for p_rgh, Initial residual = 0.000180809, Final residual = 1.78428e-06, No Iterations 126
diagonal:  Solving for rho, Initial residual = 0, Final residual = 0, No Iterations 0
time step continuity errors : sum local = 3.01008e-10, global = 1.06564e-10, cumulative = -1.2222e-08
DICPCG:  Solving for p_rgh, Initial residual = 4.74102e-05, Final residual = 9.66518e-07, No Iterations 112
DICPCG:  Solving for p_rgh, Initial residual = 2.14272e-06, Final residual = 9.95649e-07, No Iterations 1
diagonal:  Solving for rho, Initial residual = 0, Final residual = 0, No Iterations 0
time step continuity errors : sum local = 7.18855e-10, global = -5.57597e-10, cumulative = -1.27796e-08
DILUPBiCGStab:  Solving for epsilon, Initial residual = 1.05948e-06, Final residual = 9.58232e-08, No Iterations 1
DILUPBiCGStab:  Solving for k, Initial residual = 3.06407e-05, Final residual = 4.85381e-07, No Iterations 1
ExecutionTime = 16.9 s  ClockTime = 17 s

Courant Number mean: 0.00293312 max: 2.04013
deltaT = 0.00104168
Time = 0.0686227

diagonal:  Solving for rho, Initial residual = 0, Final residual = 0, No Iterations 0
PIMPLE: iteration 1
DILUPBiCGStab:  Solving for H2, Initial residual = 9.24048e-07, Final residual = 9.24048e-07, No Iterations 0
DILUPBiCGStab:  Solving for h, Initial residual = 0.00111497, Final residual = 2.43973e-07, No Iterations 1
min/max(T) = 284.142, 286.858
DICPCG:  Solving for p_rgh, Initial residual = 0.0172786, Final residual = 0.000168111, No Iterations 111
DICPCG:  Solving for p_rgh, Initial residual = 0.000208641, Final residual = 1.967e-06, No Iterations 115
diagonal:  Solving for rho, Initial residual = 0, Final residual = 0, No Iterations 0
time step continuity errors : sum local = 2.93658e-10, global = 8.97558e-11, cumulative = -1.26898e-08
DICPCG:  Solving for p_rgh, Initial residual = 5.33896e-05, Final residual = 9.77111e-07, No Iterations 137
DICPCG:  Solving for p_rgh, Initial residual = 3.71408e-06, Final residual = 9.74802e-07, No Iterations 35
diagonal:  Solving for rho, Initial residual = 0, Final residual = 0, No Iterations 0
time step continuity errors : sum local = 6.97722e-10, global = -5.14418e-10, cumulative = -1.32042e-08
DILUPBiCGStab:  Solving for epsilon, Initial residual = 8.89737e-07, Final residual = 8.89737e-07, No Iterations 0
DILUPBiCGStab:  Solving for k, Initial residual = 2.19796e-05, Final residual = 3.51923e-07, No Iterations 1
ExecutionTime = 17.27 s  ClockTime = 18 s

Courant Number mean: 0.00291413 max: 2.03484
deltaT = 0.00102385
Time = 0.0696465

diagonal:  Solving for rho, Initial residual = 0, Final residual = 0, No Iterations 0
PIMPLE: iteration 1
DILUPBiCGStab:  Solving for H2, Initial residual = 9.22649e-07, Final residual = 9.22649e-07, No Iterations 0
DILUPBiCGStab:  Solving for h, Initial residual = 0.00111404, Final residual = 2.62631e-07, No Iterations 1
min/max(T) = 282.202, 286.877
DICPCG:  Solving for p_rgh, Initial residual = 0.0181032, Final residual = 0.00017948, No Iterations 109
DICPCG:  Solving for p_rgh, Initial residual = 0.000210962, Final residual = 2.02924e-06, No Iterations 116
diagonal:  Solving for rho, Initial residual = 0, Final residual = 0, No Iterations 0
time step continuity errors : sum local = 3.2117e-10, global = 1.00398e-10, cumulative = -1.31038e-08
DICPCG:  Solving for p_rgh, Initial residual = 4.9788e-05, Final residual = 9.98956e-07, No Iterations 87
DICPCG:  Solving for p_rgh, Initial residual = 1.71596e-06, Final residual = 8.5555e-07, No Iterations 1
diagonal:  Solving for rho, Initial residual = 0, Final residual = 0, No Iterations 0
time step continuity errors : sum local = 6.43455e-10, global = -4.67493e-10, cumulative = -1.35713e-08
DILUPBiCGStab:  Solving for epsilon, Initial residual = 1.04567e-06, Final residual = 8.27355e-08, No Iterations 1
DILUPBiCGStab:  Solving for k, Initial residual = 2.81458e-05, Final residual = 4.78216e-07, No Iterations 1
ExecutionTime = 17.6 s  ClockTime = 18 s

Courant Number mean: 0.0029012 max: 2.01995
deltaT = 0.00101372
Time = 0.0706602

diagonal:  Solving for rho, Initial residual = 0, Final residual = 0, No Iterations 0
PIMPLE: iteration 1
DILUPBiCGStab:  Solving for H2, Initial residual = 8.24317e-07, Final residual = 8.24317e-07, No Iterations 0
[...]
ExecutionTime = 39.95 s  ClockTime = 41 s

Courant Number mean: 0.00291079 max: 2.00281
deltaT = 0.00056857
Time = 0.127919

diagonal:  Solving for rho, Initial residual = 0, Final residual = 0, No Iterations 0
PIMPLE: iteration 1
DILUPBiCGStab:  Solving for H2, Initial residual = 7.0217e-07, Final residual = 7.0217e-07, No Iterations 0
DILUPBiCGStab:  Solving for h, Initial residual = 0.000157421, Final residual = 8.11343e-08, No Iterations 1
min/max(T) = 204.162, 286.175
DICPCG:  Solving for p_rgh, Initial residual = 0.00465275, Final residual = 4.56051e-05, No Iterations 66
DICPCG:  Solving for p_rgh, Initial residual = 4.75808e-05, Final residual = 9.35306e-07, No Iterations 83
diagonal:  Solving for rho, Initial residual = 0, Final residual = 0, No Iterations 0
time step continuity errors : sum local = 9.88051e-11, global = 4.07733e-12, cumulative = 3.0237e-09
DICPCG:  Solving for p_rgh, Initial residual = 7.39561e-05, Final residual = 9.83538e-07, No Iterations 33
DICPCG:  Solving for p_rgh, Initial residual = 1.33186e-06, Final residual = 7.45979e-07, No Iterations 1
diagonal:  Solving for rho, Initial residual = 0, Final residual = 0, No Iterations 0
time step continuity errors : sum local = 1.47933e-10, global = -1.83038e-11, cumulative = 3.00539e-09
DILUPBiCGStab:  Solving for epsilon, Initial residual = 9.56503e-07, Final residual = 9.56503e-07, No Iterations 0
DILUPBiCGStab:  Solving for k, Initial residual = 0.000686559, Final residual = 4.90917e-08, No Iterations 1
ExecutionTime = 40.22 s  ClockTime = 41 s

Courant Number mean: 0.0029206 max: 2.00368
deltaT = 0.000567524
Time = 0.128487

diagonal:  Solving for rho, Initial residual = 0, Final residual = 0, No Iterations 0
PIMPLE: iteration 1
DILUPBiCGStab:  Solving for H2, Initial residual = 7.03812e-07, Final residual = 7.03812e-07, No Iterations 0
DILUPBiCGStab:  Solving for h, Initial residual = 0.000155874, Final residual = 7.81521e-08, No Iterations 1
min/max(T) = 203.66, 286.175
DICPCG:  Solving for p_rgh, Initial residual = 0.00485653, Final residual = 4.74645e-05, No Iterations 64
DICPCG:  Solving for p_rgh, Initial residual = 4.95014e-05, Final residual = 9.94798e-07, No Iterations 81
diagonal:  Solving for rho, Initial residual = 0, Final residual = 0, No Iterations 0
time step continuity errors : sum local = 1.04995e-10, global = 1.19544e-11, cumulative = 3.01735e-09
DICPCG:  Solving for p_rgh, Initial residual = 9.06696e-05, Final residual = 9.691e-07, No Iterations 34
DICPCG:  Solving for p_rgh, Initial residual = 1.33142e-06, Final residual = 7.44256e-07, No Iterations 1
diagonal:  Solving for rho, Initial residual = 0, Final residual = 0, No Iterations 0
time step continuity errors : sum local = 1.50142e-10, global = -2.90693e-11, cumulative = 2.98828e-09
DILUPBiCGStab:  Solving for epsilon, Initial residual = 1.05458e-06, Final residual = 2.36997e-08, No Iterations 1
DILUPBiCGStab:  Solving for k, Initial residual = 0.000887424, Final residual = 8.43206e-08, No Iterations 1
ExecutionTime = 40.48 s  ClockTime = 41 s

Courant Number mean: 0.00292895 max: 2.00416
deltaT = 0.000566352
Time = 0.129053

diagonal:  Solving for rho, Initial residual = 0, Final residual = 0, No Iterations 0
PIMPLE: iteration 1
DILUPBiCGStab:  Solving for H2, Initial residual = 7.04857e-07, Final residual = 7.04857e-07, No Iterations 0
DILUPBiCGStab:  Solving for h, Initial residual = 0.000153896, Final residual = 7.31674e-08, No Iterations 1
min/max(T) = 203.186, 286.175
DICPCG:  Solving for p_rgh, Initial residual = 0.00466905, Final residual = 4.5682e-05, No Iterations 65
DICPCG:  Solving for p_rgh, Initial residual = 4.766e-05, Final residual = 9.55433e-07, No Iterations 82
diagonal:  Solving for rho, Initial residual = 0, Final residual = 0, No Iterations 0
time step continuity errors : sum local = 9.92758e-11, global = 9.31185e-12, cumulative = 2.99759e-09
DICPCG:  Solving for p_rgh, Initial residual = 8.31754e-05, Final residual = 9.4449e-07, No Iterations 35
DICPCG:  Solving for p_rgh, Initial residual = 1.331e-06, Final residual = 7.28228e-07, No Iterations 1
diagonal:  Solving for rho, Initial residual = 0, Final residual = 0, No Iterations 0
time step continuity errors : sum local = 1.50782e-10, global = -3.91051e-11, cumulative = 2.95849e-09
DILUPBiCGStab:  Solving for epsilon, Initial residual = 1.02021e-06, Final residual = 2.20418e-08, No Iterations 1
DILUPBiCGStab:  Solving for k, Initial residual = 0.000863019, Final residual = 7.59125e-08, No Iterations 1
ExecutionTime = 40.75 s  ClockTime = 41 s

Courant Number mean: 0.00293649 max: 2.00235
deltaT = 0.00056567
Time = 0.129619

diagonal:  Solving for rho, Initial residual = 0, Final residual = 0, No Iterations 0
PIMPLE: iteration 1
DILUPBiCGStab:  Solving for H2, Initial residual = 7.06141e-07, Final residual = 7.06141e-07, No Iterations 0
DILUPBiCGStab:  Solving for h, Initial residual = 0.000150358, Final residual = 6.73801e-08, No Iterations 1
min/max(T) = 202.741, 286.175
DICPCG:  Solving for p_rgh, Initial residual = 0.00462747, Final residual = 4.61571e-05, No Iterations 64
DICPCG:  Solving for p_rgh, Initial residual = 4.80728e-05, Final residual = 9.6869e-07, No Iterations 81
diagonal:  Solving for rho, Initial residual = 0, Final residual = 0, No Iterations 0
time step continuity errors : sum local = 9.98115e-11, global = 1.46571e-11, cumulative = 2.97314e-09
DICPCG:  Solving for p_rgh, Initial residual = 8.15352e-05, Final residual = 9.95472e-07, No Iterations 35
DICPCG:  Solving for p_rgh, Initial residual = 1.40396e-06, Final residual = 7.69765e-07, No Iterations 1
diagonal:  Solving for rho, Initial residual = 0, Final residual = 0, No Iterations 0
time step continuity errors : sum local = 1.56018e-10, global = -4.93942e-11, cumulative = 2.92375e-09
DILUPBiCGStab:  Solving for epsilon, Initial residual = 9.70469e-07, Final residual = 9.70469e-07, No Iterations 0
DILUPBiCGStab:  Solving for k, Initial residual = 0.000840278, Final residual = 6.91176e-08, No Iterations 1
ExecutionTime = 41.01 s  ClockTime = 42 s

Courant Number mean: 0.00294646 max: 2.00335
deltaT = 0.000564732
Time = 0.130184

diagonal:  Solving for rho, Initial residual = 0, Final residual = 0, No Iterations 0
PIMPLE: iteration 1
DILUPBiCGStab:  Solving for H2, Initial residual = 7.06948e-07, Final residual = 7.06948e-07, No Iterations 0
DILUPBiCGStab:  Solving for h, Initial residual = 0.000145808, Final residual = 6.56868e-08, No Iterations 1
min/max(T) = 202.328, 286.175
DICPCG:  Solving for p_rgh, Initial residual = 0.00465985, Final residual = 4.47809e-05, No Iterations 63
DICPCG:  Solving for p_rgh, Initial residual = 4.67097e-05, Final residual = 9.5135e-07, No Iterations 80
diagonal:  Solving for rho, Initial residual = 0, Final residual = 0, No Iterations 0
time step continuity errors : sum local = 9.7871e-11, global = 1.43431e-11, cumulative = 2.93809e-09
DICPCG:  Solving for p_rgh, Initial residual = 9.48204e-05, Final residual = 9.42611e-07, No Iterations 37
DICPCG:  Solving for p_rgh, Initial residual = 1.37643e-06, Final residual = 7.43503e-07, No Iterations 1
diagonal:  Solving for rho, Initial residual = 0, Final residual = 0, No Iterations 0
time step continuity errors : sum local = 1.54384e-10, global = -5.55642e-11, cumulative = 2.88253e-09
DILUPBiCGStab:  Solving for epsilon, Initial residual = 1.07907e-06, Final residual = 2.23449e-08, No Iterations 1
DILUPBiCGStab:  Solving for k, Initial residual = 0.00104277, Final residual = 1.16622e-07, No Iterations 1
ExecutionTime = 41.28 s  ClockTime = 42 s

Courant Number mean: 0.00295496 max: 2.00193
deltaT = 0.000564183
Time = 0.130748

diagonal:  Solving for rho, Initial residual = 0, Final residual = 0, No Iterations 0
PIMPLE: iteration 1
DILUPBiCGStab:  Solving for H2, Initial residual = 7.08005e-07, Final residual = 7.08005e-07, No Iterations 0
DILUPBiCGStab:  Solving for h, Initial residual = 0.000140471, Final residual = 6.27328e-08, No Iterations 1
min/max(T) = 201.943, 286.175
DICPCG:  Solving for p_rgh, Initial residual = 0.00440025, Final residual = 4.23906e-05, No Iterations 63
DICPCG:  Solving for p_rgh, Initial residual = 4.41885e-05, Final residual = 9.86828e-07, No Iterations 79
diagonal:  Solving for rho, Initial residual = 0, Final residual = 0, No Iterations 0
time step continuity errors : sum local = 9.82409e-11, global = 1.42568e-11, cumulative = 2.89678e-09
DICPCG:  Solving for p_rgh, Initial residual = 9.13061e-05, Final residual = 9.86189e-07, No Iterations 37
DICPCG:  Solving for p_rgh, Initial residual = 1.43928e-06, Final residual = 7.84431e-07, No Iterations 1
diagonal:  Solving for rho, Initial residual = 0, Final residual = 0, No Iterations 0
time step continuity errors : sum local = 1.58174e-10, global = -6.43328e-11, cumulative = 2.83245e-09
DILUPBiCGStab:  Solving for epsilon, Initial residual = 1.00986e-06, Final residual = 2.05799e-08, No Iterations 1
DILUPBiCGStab:  Solving for k, Initial residual = 0.0010133, Final residual = 1.08687e-07, No Iterations 1
ExecutionTime = 41.55 s  ClockTime = 42 s

Courant Number mean: 0.00296539 max: 2.00168
deltaT = 0.0005637
Time = 0.131311

diagonal:  Solving for rho, Initial residual = 0, Final residual = 0, No Iterations 0
PIMPLE: iteration 1
DILUPBiCGStab:  Solving for H2, Initial residual = 7.09081e-07, Final residual = 7.09081e-07, No Iterations 0
DILUPBiCGStab:  Solving for h, Initial residual = 0.000133572, Final residual = 5.83678e-08, No Iterations 1
min/max(T) = 201.591, 286.175
DICPCG:  Solving for p_rgh, Initial residual = 0.00423442, Final residual = 4.06639e-05, No Iterations 62
DICPCG:  Solving for p_rgh, Initial residual = 4.23365e-05, Final residual = 9.17331e-07, No Iterations 79
diagonal:  Solving for rho, Initial residual = 0, Final residual = 0, No Iterations 0
time step continuity errors : sum local = 9.22972e-11, global = 1.24689e-11, cumulative = 2.84492e-09
DICPCG:  Solving for p_rgh, Initial residual = 9.19807e-05, Final residual = 9.27193e-07, No Iterations 38
DICPCG:  Solving for p_rgh, Initial residual = 1.40447e-06, Final residual = 7.57474e-07, No Iterations 1
diagonal:  Solving for rho, Initial residual = 0, Final residual = 0, No Iterations 0
time step continuity errors : sum local = 1.56017e-10, global = -7.11399e-11, cumulative = 2.77378e-09
DILUPBiCGStab:  Solving for epsilon, Initial residual = 9.36118e-07, Final residual = 9.36118e-07, No Iterations 0
DILUPBiCGStab:  Solving for k, Initial residual = 0.000984268, Final residual = 9.85159e-08, No Iterations 1
ExecutionTime = 41.82 s  ClockTime = 42 s

Courant Number mean: 0.00297607 max: 1.99982
deltaT = 0.000563764
Time = 0.131875

diagonal:  Solving for rho, Initial residual = 0, Final residual = 0, No Iterations 0
PIMPLE: iteration 1
DILUPBiCGStab:  Solving for H2, Initial residual = 7.11014e-07, Final residual = 7.11014e-07, No Iterations 0
DILUPBiCGStab:  Solving for h, Initial residual = 0.000126303, Final residual = 5.75674e-08, No Iterations 1
min/max(T) = 201.27, 286.175
DICPCG:  Solving for p_rgh, Initial residual = 0.00418838, Final residual = 4.01969e-05, No Iterations 60
DICPCG:  Solving for p_rgh, Initial residual = 4.18804e-05, Final residual = 9.86097e-07, No Iterations 77
diagonal:  Solving for rho, Initial residual = 0, Final residual = 0, No Iterations 0
time step continuity errors : sum local = 9.90283e-11, global = 2.31342e-11, cumulative = 2.79691e-09
DICPCG:  Solving for p_rgh, Initial residual = 0.000106393, Final residual = 1.01795e-06, No Iterations 38
DICPCG:  Solving for p_rgh, Initial residual = 1.51626e-06, Final residual = 8.23534e-07, No Iterations 1
diagonal:  Solving for rho, Initial residual = 0, Final residual = 0, No Iterations 0
time step continuity errors : sum local = 1.61534e-10, global = -7.79418e-11, cumulative = 2.71897e-09
DILUPBiCGStab:  Solving for epsilon, Initial residual = 1.04348e-06, Final residual = 2.12663e-08, No Iterations 1
DILUPBiCGStab:  Solving for k, Initial residual = 0.00119677, Final residual = 1.6076e-07, No Iterations 1
ExecutionTime = 42.08 s  ClockTime = 43 s

Courant Number mean: 0.00298959 max: 2.0002
deltaT = 0.0005637
Time = 0.132439

diagonal:  Solving for rho, Initial residual = 0, Final residual = 0, No Iterations 0
PIMPLE: iteration 1
DILUPBiCGStab:  Solving for H2, Initial residual = 7.12472e-07, Final residual = 7.12472e-07, No Iterations 0
DILUPBiCGStab:  Solving for h, Initial residual = 0.000118899, Final residual = 5.53288e-08, No Iterations 1
min/max(T) = 200.98, 286.175
DICPCG:  Solving for p_rgh, Initial residual = 0.00386833, Final residual = 3.81275e-05, No Iterations 58
DICPCG:  Solving for p_rgh, Initial residual = 3.96387e-05, Final residual = 9.77537e-07, No Iterations 74
diagonal:  Solving for rho, Initial residual = 0, Final residual = 0, No Iterations 0
time step continuity errors : sum local = 9.45657e-11, global = 2.08445e-11, cumulative = 2.73982e-09
DICPCG:  Solving for p_rgh, Initial residual = 0.000103399, Final residual = 1.01435e-06, No Iterations 38
DICPCG:  Solving for p_rgh, Initial residual = 1.53331e-06, Final residual = 8.29599e-07, No Iterations 1
diagonal:  Solving for rho, Initial residual = 0, Final residual = 0, No Iterations 0
time step continuity errors : sum local = 1.61758e-10, global = -8.50982e-11, cumulative = 2.65472e-09
DILUPBiCGStab:  Solving for epsilon, Initial residual = 1.01801e-06, Final residual = 1.98691e-08, No Iterations 1
DILUPBiCGStab:  Solving for k, Initial residual = 0.00116535, Final residual = 1.52161e-07, No Iterations 1
ExecutionTime = 42.34 s  ClockTime = 43 s

Courant Number mean: 0.00300236 max: 1.99793
deltaT = 0.00056428
Time = 0.133003

diagonal:  Solving for rho, Initial residual = 0, Final residual = 0, No Iterations 0
PIMPLE: iteration 1
DILUPBiCGStab:  Solving for H2, Initial residual = 7.14462e-07, Final residual = 7.14462e-07, No Iterations 0
DILUPBiCGStab:  Solving for h, Initial residual = 0.000111202, Final residual = 5.15792e-08, No Iterations 1
min/max(T) = 200.723, 286.175
DICPCG:  Solving for p_rgh, Initial residual = 0.00367361, Final residual = 3.58341e-05, No Iterations 52
DICPCG:  Solving for p_rgh, Initial residual = 3.70777e-05, Final residual = 9.88081e-07, No Iterations 73
diagonal:  Solving for rho, Initial residual = 0, Final residual = 0, No Iterations 0
time step continuity errors : sum local = 9.54575e-11, global = 1.89406e-11, cumulative = 2.67366e-09
DICPCG:  Solving for p_rgh, Initial residual = 0.000103663, Final residual = 9.72058e-07, No Iterations 39
DICPCG:  Solving for p_rgh, Initial residual = 1.51484e-06, Final residual = 8.00534e-07, No Iterations 1
diagonal:  Solving for rho, Initial residual = 0, Final residual = 0, No Iterations 0
time step continuity errors : sum local = 1.59607e-10, global = -9.12655e-11, cumulative = 2.58239e-09
DILUPBiCGStab:  Solving for epsilon, Initial residual = 9.9336e-07, Final residual = 9.9336e-07, No Iterations 0
DILUPBiCGStab:  Solving for k, Initial residual = 0.00113717, Final residual = 1.39626e-07, No Iterations 1
ExecutionTime = 42.6 s  ClockTime = 43 s

Courant Number mean: 0.00301854 max: 1.99842
deltaT = 0.000564732
Time = 0.133568

diagonal:  Solving for rho, Initial residual = 0, Final residual = 0, No Iterations 0
PIMPLE: iteration 1
DILUPBiCGStab:  Solving for H2, Initial residual = 7.16126e-07, Final residual = 7.16126e-07, No Iterations 0
DILUPBiCGStab:  Solving for h, Initial residual = 0.000104842, Final residual = 5.08861e-08, No Iterations 1
min/max(T) = 200.499, 286.175
DICPCG:  Solving for p_rgh, Initial residual = 0.00375759, Final residual = 3.30905e-05, No Iterations 48
DICPCG:  Solving for p_rgh, Initial residual = 3.43307e-05, Final residual = 9.22024e-07, No Iterations 69
diagonal:  Solving for rho, Initial residual = 0, Final residual = 0, No Iterations 0
time step continuity errors : sum local = 8.8618e-11, global = 1.21004e-11, cumulative = 2.59449e-09
DICPCG:  Solving for p_rgh, Initial residual = 0.000120593, Final residual = 1.15209e-06, No Iterations 38
DICPCG:  Solving for p_rgh, Initial residual = 1.71442e-06, Final residual = 9.22086e-07, No Iterations 1
diagonal:  Solving for rho, Initial residual = 0, Final residual = 0, No Iterations 0
time step continuity errors : sum local = 1.71073e-10, global = -9.81721e-11, cumulative = 2.49632e-09
DILUPBiCGStab:  Solving for epsilon, Initial residual = 1.11623e-06, Final residual = 2.19611e-08, No Iterations 1
DILUPBiCGStab:  Solving for k, Initial residual = 0.00136734, Final residual = 2.20687e-07, No Iterations 1
ExecutionTime = 42.85 s  ClockTime = 43 s

Courant Number mean: 0.00303403 max: 1.99757
deltaT = 0.000565412
Time = 0.134133

diagonal:  Solving for rho, Initial residual = 0, Final residual = 0, No Iterations 0
PIMPLE: iteration 1
DILUPBiCGStab:  Solving for H2, Initial residual = 7.1799e-07, Final residual = 7.1799e-07, No Iterations 0
DILUPBiCGStab:  Solving for h, Initial residual = 0.000101702, Final residual = 5.03009e-08, No Iterations 1
min/max(T) = 200.307, 286.175
DICPCG:  Solving for p_rgh, Initial residual = 0.00381423, Final residual = 3.77071e-05, No Iterations 29
DICPCG:  Solving for p_rgh, Initial residual = 3.8752e-05, Final residual = 9.61947e-07, No Iterations 86
diagonal:  Solving for rho, Initial residual = 0, Final residual = 0, No Iterations 0
time step continuity errors : sum local = 9.24752e-11, global = 1.9519e-11, cumulative = 2.51584e-09
DICPCG:  Solving for p_rgh, Initial residual = 0.000116541, Final residual = 1.13301e-06, No Iterations 38
DICPCG:  Solving for p_rgh, Initial residual = 1.71336e-06, Final residual = 9.19656e-07, No Iterations 1
diagonal:  Solving for rho, Initial residual = 0, Final residual = 0, No Iterations 0
time step continuity errors : sum local = 1.73923e-10, global = -1.03606e-10, cumulative = 2.41224e-09
DILUPBiCGStab:  Solving for epsilon, Initial residual = 1.10432e-06, Final residual = 2.09031e-08, No Iterations 1
DILUPBiCGStab:  Solving for k, Initial residual = 0.00133702, Final residual = 2.05892e-07, No Iterations 1
ExecutionTime = 43.11 s  ClockTime = 44 s


    From virtual bool Foam::regIOobject::readIfModified()
    in file db/regIOobject/regIOobjectRead.C at line 266
        Re-reading object controlDict from file "/cfs/klemming/home/c/chhua/naiss2024-5-347/OpenFOAM/chhua-v2406/run/H2Vent/1m3_27mm_wall_H2_test_15/system/controlDict"
Courant Number mean: 0.00305074 max: 1.99738
deltaT = 0.000566158
Time = 0.1347

diagonal:  Solving for rho, Initial residual = 0, Final residual = 0, No Iterations 0
PIMPLE: iteration 1
DILUPBiCGStab:  Solving for H2, Initial residual = 7.19663e-07, Final residual = 7.19663e-07, No Iterations 0
DILUPBiCGStab:  Solving for h, Initial residual = 0.000106537, Final residual = 5.04115e-08, No Iterations 1
min/max(T) = 200.147, 286.175
DICPCG:  Solving for p_rgh, Initial residual = 0.0042598, Final residual = 4.09513e-05, No Iterations 30
DICPCG:  Solving for p_rgh, Initial residual = 4.16738e-05, Final residual = 9.88246e-07, No Iterations 77
diagonal:  Solving for rho, Initial residual = 0, Final residual = 0, No Iterations 0
time step continuity errors : sum local = 9.48705e-11, global = 2.3111e-11, cumulative = 2.43535e-09
DICPCG:  Solving for p_rgh, Initial residual = 0.000117011, Final residual = 1.10667e-06, No Iterations 39
DICPCG:  Solving for p_rgh, Initial residual = 1.70682e-06, Final residual = 9.02037e-07, No Iterations 1
diagonal:  Solving for rho, Initial residual = 0, Final residual = 0, No Iterations 0
time step continuity errors : sum local = 1.75709e-10, global = -1.07651e-10, cumulative = 2.3277e-09
DILUPBiCGStab:  Solving for epsilon, Initial residual = 1.07584e-06, Final residual = 1.99035e-08, No Iterations 1
DILUPBiCGStab:  Solving for k, Initial residual = 0.00130361, Final residual = 1.92029e-07, No Iterations 1
ExecutionTime = 43.37 s  ClockTime = 44 s

End

Finalising parallel run
