/*---------------------------------------------------------------------------*\
| =========                 |                                                 |
| \\      /  F ield         | OpenFOAM: The Open Source CFD Toolbox           |
|  \\    /   O peration     | Version:  2406                                  |
|   \\  /    A nd           | Website:  www.openfoam.com                      |
|    \\/     M anipulation  |                                                 |
\*---------------------------------------------------------------------------*/
Build  : _630d60de3b-20240620 OPENFOAM=2406 version=v2406
Arch   : "LSB;label=32;scalar=64"
Exec   : checkMesh
Date   : Mar 18 2026
Time   : 10:42:42
Host   : RISEPC-MhOrpSuy
PID    : 324895
I/O    : uncollated
Case   : /home/chenhu/OpenFOAM/chenhu-v2406/run/H2Vent/1m3_27mm_wall_H2_test_02
nProcs : 1
trapFpe: Floating point exception trapping enabled (FOAM_SIGFPE).
fileModificationChecking : Monitoring run-time modified files using timeStampMaster (fileModificationSkew 5, maxFileModificationPolls 20)
allowSystemOperations : Allowing user-supplied system call operations

// * * * * * * * * * * * * * * * * * * * * * * * * * * * * * * * * * * * * * //
Create time

Create mesh for time = 0

Check mesh...

Time = 0

Mesh stats 
    points:           1244008
    faces:            3587400
    internal faces:   3491034
    cells:            1172033
    faces per cell:   6.03945
    boundary patches: 9
    point zones:      1
    face zones:       0
    cell zones:       0

Overall number of cells of each type:
    hexahedra:     1155566
    prisms:        372
    wedges:        0
    pyramids:      0
    tet wedges:    0
    tetrahedra:    0
    polyhedra:     16095
    Breakdown of polyhedra by number of faces:
        faces   number of cells
            5   12
            6   627
            9   15375
           12   78
           15   3

Checking topology...
    Boundary definition OK.
    Cell to face addressing OK.
    Point usage OK.
    Upper triangular ordering OK.
    Face vertices OK.
    Number of regions: 1 (OK).

Checking patch topology for multiply connected surfaces...
                   Patch    Faces   Points  Surface topology
                    left    23983    24735  ok (non-closed singly connected)
                   right     5400     5551  ok (non-closed singly connected)
                     top     3150     3276  ok (non-closed singly connected)
                   front     2100     2196  ok (non-closed singly connected)
                    back     2100     2196  ok (non-closed singly connected)
       nozzle_27mm_5mm_m     1190     1281  ok (non-closed singly connected)
             box_shell_m    46544    46960  ok (non-closed singly connected)
                  nozzle       44       54  ok (non-closed singly connected)
             bottom_wall    11855    12332  ok (non-closed singly connected)
                    ".*"    96366    96707      ok (closed singly connected)


Checking faceZone topology for multiply connected surfaces...
    No faceZones found.

Checking basic cellZone addressing...
    No cellZones found.

Checking basic pointZone addressing...
               PointZone  PointsBoundingBox
            frozenPoints       0(1e+150 1e+150 1e+150) (-1e+150 -1e+150 -1e+150)

Checking geometry...
    Overall domain bounding box (0 -1.5 -1.0607e-37) (1.5 1.5 2)
    Mesh has 3 geometric (non-empty/wedge) directions (1 1 1)
    Mesh has 3 solution (non-empty) directions (1 1 1)
    Boundary openness (-9.42821e-16 1.14253e-16 -4.64446e-15) OK.
    Max cell openness = 3.394e-16 OK.
    Max aspect ratio = 6.99095 OK.
    Minimum face area = 2.88714e-06. Maximum face area = 0.0190735.  Face area magnitudes OK.
    Min volume = 7.21792e-09. Max volume = 0.00131622.  Total volume = 8.97663.  Cell volumes OK.
    Mesh non-orthogonality Max: 54.5012 average: 2.86976
    Non-orthogonality check OK.
    Face pyramids OK.
    Max skewness = 1.63641 OK.
    Coupled point location match (average 0) OK.

Mesh OK.

End

