/*---------------------------------------------------------------------------*\
| =========                 |                                                 |
| \\      /  F ield         | OpenFOAM: The Open Source CFD Toolbox           |
|  \\    /   O peration     | Version:  2406                                  |
|   \\  /    A nd           | Website:  www.openfoam.com                      |
|    \\/     M anipulation  |                                                 |
\*---------------------------------------------------------------------------*/
Build  : _630d60de3b-20240620 OPENFOAM=2406 version=v2406
Arch   : "LSB;label=32;scalar=64"
Exec   : blockMesh
Date   : Mar 18 2026
Time   : 10:40:11
Host   : RISEPC-MhOrpSuy
PID    : 324292
I/O    : uncollated
Case   : /home/chenhu/OpenFOAM/chenhu-v2406/run/H2Vent/1m3_27mm_wall_H2_test_02
nProcs : 1
trapFpe: Floating point exception trapping enabled (FOAM_SIGFPE).
fileModificationChecking : Monitoring run-time modified files using timeStampMaster (fileModificationSkew 5, maxFileModificationPolls 20)
allowSystemOperations : Allowing user-supplied system call operations

// * * * * * * * * * * * * * * * * * * * * * * * * * * * * * * * * * * * * * //
Create time

Creating block mesh from "system/blockMeshDict"
Using #calc - line 40 in file "system/blockMeshDict"
Using #codeStream with "/home/chenhu/OpenFOAM/chenhu-v2406/run/H2Vent/1m3_27mm_wall_H2_test_02/dynamicCode/platforms/linux64GccDPInt32Opt/lib/libcodeStream_9404448b52916d7e6015662271cc958bed1ec761.so"
Using #calc - line 46 in file "system/blockMeshDict"
Using #codeStream with "/home/chenhu/OpenFOAM/chenhu-v2406/run/H2Vent/1m3_27mm_wall_H2_test_02/dynamicCode/platforms/linux64GccDPInt32Opt/lib/libcodeStream_f2d424b56efc35e02af4b123624fb792fa8a270a.so"
Using #calc - line 47 in file "system/blockMeshDict"
Using #codeStream with "/home/chenhu/OpenFOAM/chenhu-v2406/run/H2Vent/1m3_27mm_wall_H2_test_02/dynamicCode/platforms/linux64GccDPInt32Opt/lib/libcodeStream_0ff231ac6e8b28a2560655c9e292f0556c79b70d.so"
Using #calc - line 48 in file "system/blockMeshDict"
Using #codeStream with "/home/chenhu/OpenFOAM/chenhu-v2406/run/H2Vent/1m3_27mm_wall_H2_test_02/dynamicCode/platforms/linux64GccDPInt32Opt/lib/libcodeStream_fcbd8585a6ed0827641204783793770391662e2d.so"
Using #calc - line 50 in file "system/blockMeshDict"
Using #codeStream with "/home/chenhu/OpenFOAM/chenhu-v2406/run/H2Vent/1m3_27mm_wall_H2_test_02/dynamicCode/platforms/linux64GccDPInt32Opt/lib/libcodeStream_930cbe1eca474863388416ae666247a60bbb6061.so"
Using #calc - line 51 in file "system/blockMeshDict"
Using #codeStream with "/home/chenhu/OpenFOAM/chenhu-v2406/run/H2Vent/1m3_27mm_wall_H2_test_02/dynamicCode/platforms/linux64GccDPInt32Opt/lib/libcodeStream_6d499cca852224b905f94d7542dc53cd90412a2b.so"
Using #calc - line 52 in file "system/blockMeshDict"
Creating block edges
No non-planar block faces defined
Creating topology blocks

Creating topology patches - from boundary section

Creating block mesh topology - scaling/transform applied later

Check topology

	Basic statistics
		Number of internal faces : 20
		Number of boundary faces : 32
		Number of defined boundary faces : 32
		Number of undefined boundary faces : 0
	Checking patch -> block consistency

Creating block offsets
Creating merge list (topological search)...
Deleting polyMesh directory "constant/polyMesh"

Creating polyMesh from blockMesh
Creating patches
Creating cells
Creating points with scale (0.001 0.001 0.001)
    Block 0 cell size :
        i : 0.02 .. 0.02
        j : 0.0691701 .. 0.034585
        k : 0.02 .. 0.02

    Block 1 cell size :
        i : 0.02 .. 0.02
        j : 0.02 .. 0.02
        k : 0.02 .. 0.02

    Block 2 cell size :
        i : 0.02 .. 0.02
        j : 0.034585 .. 0.0691701
        k : 0.02 .. 0.02

    Block 3 cell size :
        i : 0.0690099 .. 0.13802
        j : 0.0691701 .. 0.034585
        k : 0.02 .. 0.02

    Block 4 cell size :
        i : 0.0690099 .. 0.13802
        j : 0.02 .. 0.02
        k : 0.02 .. 0.02

    Block 5 cell size :
        i : 0.0690099 .. 0.13802
        j : 0.034585 .. 0.0691701
        k : 0.02 .. 0.02

    Block 6 cell size :
        i : 0.02 .. 0.02
        j : 0.0691701 .. 0.034585
        k : 0.0690099 .. 0.13802

    Block 7 cell size :
        i : 0.02 .. 0.02
        j : 0.02 .. 0.02
        k : 0.0690099 .. 0.13802

    Block 8 cell size :
        i : 0.02 .. 0.02
        j : 0.034585 .. 0.0691701
        k : 0.0690099 .. 0.13802

    Block 9 cell size :
        i : 0.0690099 .. 0.13802
        j : 0.0691701 .. 0.034585
        k : 0.0690099 .. 0.13802

    Block 10 cell size :
        i : 0.0690099 .. 0.13802
        j : 0.02 .. 0.02
        k : 0.0690099 .. 0.13802

    Block 11 cell size :
        i : 0.0690099 .. 0.13802
        j : 0.034585 .. 0.0691701
        k : 0.0690099 .. 0.13802

No patch pairs to merge

Writing polyMesh with 0 cellZones
----------------
Mesh Information
----------------
  boundingBox: (0 -1.5 0) (1.5 1.5 2)
  nPoints: 199836
  nCells: 189000
  nFaces: 577650
  nInternalFaces: 556350
----------------
Patches
----------------
  patch 0 (start: 556350 size: 5400) name: left
  patch 1 (start: 561750 size: 5400) name: right
  patch 2 (start: 567150 size: 3150) name: top
  patch 3 (start: 570300 size: 3150) name: bottom
  patch 4 (start: 573450 size: 2100) name: front
  patch 5 (start: 575550 size: 2100) name: back

End

